* Extracted by KLayout with GF180MCU LVS runset on : 08/05/2026 13:20

.SUBCKT FULL VDD E15 REC15 RSTN EN15 CLK GND IPG15 EN14 E14 REC14 IPG14 EN13
+ E13 REC13 IPG13 EN12 E12 REC12 IPG12 EN11 E11 REC11 IPG11 EN10 E10 REC10
+ IPG10 EN9 E9 REC9 IPG9 MODE EN8 E8 REC8 IPG8 EN7 E7 REC7 IPG7 EN6 E6 REC6
+ IPG6 E5 REC5 EN5 IPG5 EN4 E4 REC4 IPG4 E3 REC3 EN3 IPG3 EN2 E2 REC2 IPG2 EN1
+ E1 REC1 IPG1 EN0 E0 REC0 IPG0
M$1 \$8 \$7 VDD VDD pfet_03v3 L=0.28U W=1U AS=0.65P AD=0.42P PS=3.3U PD=1.84U
M$2 VDD \$20 \$8 VDD pfet_03v3 L=0.28U W=1U AS=0.42P AD=0.735P PS=1.84U PD=2.47U
M$3 \$9 \$8 VDD VDD pfet_03v3 L=0.28U W=1U AS=0.735P AD=0.635P PS=2.47U PD=3.27U
M$4 \$10 \$9 VDD VDD pfet_03v3 L=0.28U W=1U AS=0.55P AD=0.65P PS=3.1U PD=3.3U
M$5 REC15 \$10 E15 VDD pfet_03v3 L=0.28U W=1U AS=0.65P AD=0.65P PS=3.3U PD=3.3U
M$6 \$3 \$13 VDD VDD pfet_03v3 L=0.28U W=1U AS=0.76P AD=0.65P PS=3.52U PD=3.3U
M$7 VDD \$3 \$4 VDD pfet_03v3 L=0.28U W=1U AS=0.65P AD=0.65P PS=3.3U PD=3.3U
M$8 \$4 RSTN VDD VDD pfet_03v3 L=0.28U W=1U AS=0.65P AD=0.65P PS=3.3U PD=3.3U
M$9 \$13 \$2 \$4 VDD pfet_03v3 L=0.28U W=1U AS=0.65P AD=0.59P PS=3.3U PD=3.18U
M$10 \$5 EN15 \$13 VDD pfet_03v3 L=0.28U W=1U AS=0.63P AD=0.605P PS=3.26U
+ PD=3.21U
M$11 VDD \$15 \$5 VDD pfet_03v3 L=0.28U W=1U AS=0.63P AD=0.54P PS=3.26U PD=3.08U
M$12 VDD \$2 \$15 VDD pfet_03v3 L=0.28U W=1U AS=0.63P AD=0.64P PS=3.26U PD=3.28U
M$13 VDD CLK \$2 VDD pfet_03v3 L=0.28U W=1U AS=0.65P AD=0.65P PS=3.3U PD=3.3U
M$14 \$6 \$19 VDD VDD pfet_03v3 L=0.28U W=1U AS=0.65P AD=0.42P PS=3.3U PD=1.84U
M$15 VDD \$18 \$6 VDD pfet_03v3 L=0.28U W=1U AS=0.42P AD=0.735P PS=1.84U
+ PD=2.47U
M$16 \$7 \$6 VDD VDD pfet_03v3 L=0.28U W=1U AS=0.735P AD=0.64P PS=2.47U PD=3.28U
M$17 \$51 \$2 \$3 VDD pfet_03v3 L=0.28U W=1U AS=0.65P AD=0.65P PS=3.3U PD=3.3U
M$18 \$53 RSTN VDD VDD pfet_03v3 L=0.28U W=1U AS=0.65P AD=0.65P PS=3.3U PD=3.3U
M$19 \$53 \$51 VDD VDD pfet_03v3 L=0.28U W=1U AS=0.65P AD=0.65P PS=3.3U PD=3.3U
M$20 \$78 \$53 \$51 VDD pfet_03v3 L=0.28U W=1U AS=0.65P AD=0.65P PS=3.3U PD=3.3U
M$21 VDD \$15 \$78 VDD pfet_03v3 L=0.28U W=1U AS=0.65P AD=0.65P PS=3.3U PD=3.3U
M$22 \$18 \$53 VDD VDD pfet_03v3 L=0.28U W=1U AS=0.65P AD=0.65P PS=3.3U PD=3.3U
M$23 \$55 \$53 VDD VDD pfet_03v3 L=0.28U W=1U AS=0.65P AD=0.65P PS=3.3U PD=3.3U
M$24 \$56 \$55 VDD VDD pfet_03v3 L=0.28U W=1U AS=0.65P AD=0.65P PS=3.3U PD=3.3U
M$25 \$57 \$60 VDD VDD pfet_03v3 L=0.28U W=1U AS=0.65P AD=0.42P PS=3.3U PD=1.84U
M$26 VDD \$18 \$57 VDD pfet_03v3 L=0.28U W=1U AS=0.42P AD=0.735P PS=1.84U
+ PD=2.47U
M$27 \$61 \$57 VDD VDD pfet_03v3 L=0.28U W=1U AS=0.735P AD=0.63P PS=2.47U
+ PD=3.26U
M$28 \$58 \$61 VDD VDD pfet_03v3 L=0.28U W=1U AS=0.65P AD=0.42P PS=3.3U PD=1.84U
M$29 VDD \$10 \$58 VDD pfet_03v3 L=0.28U W=1U AS=0.42P AD=0.735P PS=1.84U
+ PD=2.47U
M$30 \$62 \$58 VDD VDD pfet_03v3 L=0.28U W=1U AS=0.735P AD=0.63P PS=2.47U
+ PD=3.26U
M$31 \$20 \$62 VDD VDD pfet_03v3 L=0.28U W=1U AS=0.56P AD=0.65P PS=3.12U PD=3.3U
M$32 IPG15 \$20 E15 VDD pfet_03v3 L=0.28U W=1U AS=0.65P AD=0.65P PS=3.3U PD=3.3U
M$33 \$93 \$92 VDD VDD pfet_03v3 L=0.28U W=1U AS=0.76P AD=0.65P PS=3.52U PD=3.3U
M$34 VDD \$93 \$94 VDD pfet_03v3 L=0.28U W=1U AS=0.65P AD=0.65P PS=3.3U PD=3.3U
M$35 \$94 RSTN VDD VDD pfet_03v3 L=0.28U W=1U AS=0.65P AD=0.65P PS=3.3U PD=3.3U
M$36 \$92 \$91 \$94 VDD pfet_03v3 L=0.28U W=1U AS=0.65P AD=0.59P PS=3.3U
+ PD=3.18U
M$37 \$96 EN14 \$92 VDD pfet_03v3 L=0.28U W=1U AS=0.63P AD=0.605P PS=3.26U
+ PD=3.21U
M$38 VDD \$97 \$96 VDD pfet_03v3 L=0.28U W=1U AS=0.63P AD=0.54P PS=3.26U
+ PD=3.08U
M$39 VDD \$91 \$97 VDD pfet_03v3 L=0.28U W=1U AS=0.63P AD=0.64P PS=3.26U
+ PD=3.28U
M$40 VDD CLK \$91 VDD pfet_03v3 L=0.28U W=1U AS=0.65P AD=0.65P PS=3.3U PD=3.3U
M$41 \$98 \$19 VDD VDD pfet_03v3 L=0.28U W=1U AS=0.65P AD=0.42P PS=3.3U PD=1.84U
M$42 VDD \$99 \$98 VDD pfet_03v3 L=0.28U W=1U AS=0.42P AD=0.735P PS=1.84U
+ PD=2.47U
M$43 \$100 \$98 VDD VDD pfet_03v3 L=0.28U W=1U AS=0.735P AD=0.64P PS=2.47U
+ PD=3.28U
M$44 \$101 \$100 VDD VDD pfet_03v3 L=0.28U W=1U AS=0.65P AD=0.42P PS=3.3U
+ PD=1.84U
M$45 VDD \$102 \$101 VDD pfet_03v3 L=0.28U W=1U AS=0.42P AD=0.735P PS=1.84U
+ PD=2.47U
M$46 \$103 \$101 VDD VDD pfet_03v3 L=0.28U W=1U AS=0.735P AD=0.635P PS=2.47U
+ PD=3.27U
M$47 \$104 \$103 VDD VDD pfet_03v3 L=0.28U W=1U AS=0.55P AD=0.65P PS=3.1U
+ PD=3.3U
M$48 REC14 \$104 E14 VDD pfet_03v3 L=0.28U W=1U AS=0.65P AD=0.65P PS=3.3U
+ PD=3.3U
M$49 \$136 \$91 \$93 VDD pfet_03v3 L=0.28U W=1U AS=0.65P AD=0.65P PS=3.3U
+ PD=3.3U
M$50 \$138 RSTN VDD VDD pfet_03v3 L=0.28U W=1U AS=0.65P AD=0.65P PS=3.3U PD=3.3U
M$51 \$138 \$136 VDD VDD pfet_03v3 L=0.28U W=1U AS=0.65P AD=0.65P PS=3.3U
+ PD=3.3U
M$52 \$162 \$138 \$136 VDD pfet_03v3 L=0.28U W=1U AS=0.65P AD=0.65P PS=3.3U
+ PD=3.3U
M$53 VDD \$97 \$162 VDD pfet_03v3 L=0.28U W=1U AS=0.65P AD=0.65P PS=3.3U PD=3.3U
M$54 \$99 \$138 VDD VDD pfet_03v3 L=0.28U W=1U AS=0.65P AD=0.65P PS=3.3U PD=3.3U
M$55 \$140 \$138 VDD VDD pfet_03v3 L=0.28U W=1U AS=0.65P AD=0.65P PS=3.3U
+ PD=3.3U
M$56 \$141 \$140 VDD VDD pfet_03v3 L=0.28U W=1U AS=0.65P AD=0.65P PS=3.3U
+ PD=3.3U
M$57 \$142 \$60 VDD VDD pfet_03v3 L=0.28U W=1U AS=0.65P AD=0.42P PS=3.3U
+ PD=1.84U
M$58 VDD \$99 \$142 VDD pfet_03v3 L=0.28U W=1U AS=0.42P AD=0.735P PS=1.84U
+ PD=2.47U
M$59 \$143 \$142 VDD VDD pfet_03v3 L=0.28U W=1U AS=0.735P AD=0.63P PS=2.47U
+ PD=3.26U
M$60 \$144 \$143 VDD VDD pfet_03v3 L=0.28U W=1U AS=0.65P AD=0.42P PS=3.3U
+ PD=1.84U
M$61 VDD \$104 \$144 VDD pfet_03v3 L=0.28U W=1U AS=0.42P AD=0.735P PS=1.84U
+ PD=2.47U
M$62 \$145 \$144 VDD VDD pfet_03v3 L=0.28U W=1U AS=0.735P AD=0.63P PS=2.47U
+ PD=3.26U
M$63 \$102 \$145 VDD VDD pfet_03v3 L=0.28U W=1U AS=0.56P AD=0.65P PS=3.12U
+ PD=3.3U
M$64 IPG14 \$102 E14 VDD pfet_03v3 L=0.28U W=1U AS=0.65P AD=0.65P PS=3.3U
+ PD=3.3U
M$65 \$177 \$176 VDD VDD pfet_03v3 L=0.28U W=1U AS=0.76P AD=0.65P PS=3.52U
+ PD=3.3U
M$66 VDD \$177 \$178 VDD pfet_03v3 L=0.28U W=1U AS=0.65P AD=0.65P PS=3.3U
+ PD=3.3U
M$67 \$178 RSTN VDD VDD pfet_03v3 L=0.28U W=1U AS=0.65P AD=0.65P PS=3.3U PD=3.3U
M$68 \$176 \$175 \$178 VDD pfet_03v3 L=0.28U W=1U AS=0.65P AD=0.59P PS=3.3U
+ PD=3.18U
M$69 \$180 EN13 \$176 VDD pfet_03v3 L=0.28U W=1U AS=0.63P AD=0.605P PS=3.26U
+ PD=3.21U
M$70 VDD \$181 \$180 VDD pfet_03v3 L=0.28U W=1U AS=0.63P AD=0.54P PS=3.26U
+ PD=3.08U
M$71 VDD \$175 \$181 VDD pfet_03v3 L=0.28U W=1U AS=0.63P AD=0.64P PS=3.26U
+ PD=3.28U
M$72 VDD CLK \$175 VDD pfet_03v3 L=0.28U W=1U AS=0.65P AD=0.65P PS=3.3U PD=3.3U
M$73 \$182 \$19 VDD VDD pfet_03v3 L=0.28U W=1U AS=0.65P AD=0.42P PS=3.3U
+ PD=1.84U
M$74 VDD \$223 \$182 VDD pfet_03v3 L=0.28U W=1U AS=0.42P AD=0.735P PS=1.84U
+ PD=2.47U
M$75 \$183 \$182 VDD VDD pfet_03v3 L=0.28U W=1U AS=0.735P AD=0.64P PS=2.47U
+ PD=3.28U
M$76 \$184 \$183 VDD VDD pfet_03v3 L=0.28U W=1U AS=0.65P AD=0.42P PS=3.3U
+ PD=1.84U
M$77 VDD \$185 \$184 VDD pfet_03v3 L=0.28U W=1U AS=0.42P AD=0.735P PS=1.84U
+ PD=2.47U
M$78 \$186 \$184 VDD VDD pfet_03v3 L=0.28U W=1U AS=0.735P AD=0.635P PS=2.47U
+ PD=3.27U
M$79 \$187 \$186 VDD VDD pfet_03v3 L=0.28U W=1U AS=0.55P AD=0.65P PS=3.1U
+ PD=3.3U
M$80 REC13 \$187 E13 VDD pfet_03v3 L=0.28U W=1U AS=0.65P AD=0.65P PS=3.3U
+ PD=3.3U
M$81 \$219 \$175 \$177 VDD pfet_03v3 L=0.28U W=1U AS=0.65P AD=0.65P PS=3.3U
+ PD=3.3U
M$82 \$221 RSTN VDD VDD pfet_03v3 L=0.28U W=1U AS=0.65P AD=0.65P PS=3.3U PD=3.3U
M$83 \$221 \$219 VDD VDD pfet_03v3 L=0.28U W=1U AS=0.65P AD=0.65P PS=3.3U
+ PD=3.3U
M$84 \$246 \$221 \$219 VDD pfet_03v3 L=0.28U W=1U AS=0.65P AD=0.65P PS=3.3U
+ PD=3.3U
M$85 VDD \$181 \$246 VDD pfet_03v3 L=0.28U W=1U AS=0.65P AD=0.65P PS=3.3U
+ PD=3.3U
M$86 \$223 \$221 VDD VDD pfet_03v3 L=0.28U W=1U AS=0.65P AD=0.65P PS=3.3U
+ PD=3.3U
M$87 \$224 \$221 VDD VDD pfet_03v3 L=0.28U W=1U AS=0.65P AD=0.65P PS=3.3U
+ PD=3.3U
M$88 \$225 \$224 VDD VDD pfet_03v3 L=0.28U W=1U AS=0.65P AD=0.65P PS=3.3U
+ PD=3.3U
M$89 \$226 \$60 VDD VDD pfet_03v3 L=0.28U W=1U AS=0.65P AD=0.42P PS=3.3U
+ PD=1.84U
M$90 VDD \$223 \$226 VDD pfet_03v3 L=0.28U W=1U AS=0.42P AD=0.735P PS=1.84U
+ PD=2.47U
M$91 \$229 \$226 VDD VDD pfet_03v3 L=0.28U W=1U AS=0.735P AD=0.63P PS=2.47U
+ PD=3.26U
M$92 \$227 \$229 VDD VDD pfet_03v3 L=0.28U W=1U AS=0.65P AD=0.42P PS=3.3U
+ PD=1.84U
M$93 VDD \$187 \$227 VDD pfet_03v3 L=0.28U W=1U AS=0.42P AD=0.735P PS=1.84U
+ PD=2.47U
M$94 \$230 \$227 VDD VDD pfet_03v3 L=0.28U W=1U AS=0.735P AD=0.63P PS=2.47U
+ PD=3.26U
M$95 \$185 \$230 VDD VDD pfet_03v3 L=0.28U W=1U AS=0.56P AD=0.65P PS=3.12U
+ PD=3.3U
M$96 IPG13 \$185 E13 VDD pfet_03v3 L=0.28U W=1U AS=0.65P AD=0.65P PS=3.3U
+ PD=3.3U
M$97 \$261 \$260 VDD VDD pfet_03v3 L=0.28U W=1U AS=0.76P AD=0.65P PS=3.52U
+ PD=3.3U
M$98 VDD \$261 \$262 VDD pfet_03v3 L=0.28U W=1U AS=0.65P AD=0.65P PS=3.3U
+ PD=3.3U
M$99 \$262 RSTN VDD VDD pfet_03v3 L=0.28U W=1U AS=0.65P AD=0.65P PS=3.3U PD=3.3U
M$100 \$260 \$247 \$262 VDD pfet_03v3 L=0.28U W=1U AS=0.65P AD=0.59P PS=3.3U
+ PD=3.18U
M$101 \$264 EN12 \$260 VDD pfet_03v3 L=0.28U W=1U AS=0.63P AD=0.605P PS=3.26U
+ PD=3.21U
M$102 VDD \$265 \$264 VDD pfet_03v3 L=0.28U W=1U AS=0.63P AD=0.54P PS=3.26U
+ PD=3.08U
M$103 VDD \$247 \$265 VDD pfet_03v3 L=0.28U W=1U AS=0.63P AD=0.64P PS=3.26U
+ PD=3.28U
M$104 VDD CLK \$247 VDD pfet_03v3 L=0.28U W=1U AS=0.65P AD=0.65P PS=3.3U PD=3.3U
M$105 \$266 \$19 VDD VDD pfet_03v3 L=0.28U W=1U AS=0.65P AD=0.42P PS=3.3U
+ PD=1.84U
M$106 VDD \$267 \$266 VDD pfet_03v3 L=0.28U W=1U AS=0.42P AD=0.735P PS=1.84U
+ PD=2.47U
M$107 \$268 \$266 VDD VDD pfet_03v3 L=0.28U W=1U AS=0.735P AD=0.64P PS=2.47U
+ PD=3.28U
M$108 \$269 \$268 VDD VDD pfet_03v3 L=0.28U W=1U AS=0.65P AD=0.42P PS=3.3U
+ PD=1.84U
M$109 VDD \$270 \$269 VDD pfet_03v3 L=0.28U W=1U AS=0.42P AD=0.735P PS=1.84U
+ PD=2.47U
M$110 \$271 \$269 VDD VDD pfet_03v3 L=0.28U W=1U AS=0.735P AD=0.635P PS=2.47U
+ PD=3.27U
M$111 \$272 \$271 VDD VDD pfet_03v3 L=0.28U W=1U AS=0.55P AD=0.65P PS=3.1U
+ PD=3.3U
M$112 REC12 \$272 E12 VDD pfet_03v3 L=0.28U W=1U AS=0.65P AD=0.65P PS=3.3U
+ PD=3.3U
M$113 \$304 \$247 \$261 VDD pfet_03v3 L=0.28U W=1U AS=0.65P AD=0.65P PS=3.3U
+ PD=3.3U
M$114 \$306 RSTN VDD VDD pfet_03v3 L=0.28U W=1U AS=0.65P AD=0.65P PS=3.3U
+ PD=3.3U
M$115 \$306 \$304 VDD VDD pfet_03v3 L=0.28U W=1U AS=0.65P AD=0.65P PS=3.3U
+ PD=3.3U
M$116 \$330 \$306 \$304 VDD pfet_03v3 L=0.28U W=1U AS=0.65P AD=0.65P PS=3.3U
+ PD=3.3U
M$117 VDD \$265 \$330 VDD pfet_03v3 L=0.28U W=1U AS=0.65P AD=0.65P PS=3.3U
+ PD=3.3U
M$118 \$267 \$306 VDD VDD pfet_03v3 L=0.28U W=1U AS=0.65P AD=0.65P PS=3.3U
+ PD=3.3U
M$119 \$308 \$306 VDD VDD pfet_03v3 L=0.28U W=1U AS=0.65P AD=0.65P PS=3.3U
+ PD=3.3U
M$120 \$309 \$308 VDD VDD pfet_03v3 L=0.28U W=1U AS=0.65P AD=0.65P PS=3.3U
+ PD=3.3U
M$121 \$310 \$60 VDD VDD pfet_03v3 L=0.28U W=1U AS=0.65P AD=0.42P PS=3.3U
+ PD=1.84U
M$122 VDD \$267 \$310 VDD pfet_03v3 L=0.28U W=1U AS=0.42P AD=0.735P PS=1.84U
+ PD=2.47U
M$123 \$313 \$310 VDD VDD pfet_03v3 L=0.28U W=1U AS=0.735P AD=0.63P PS=2.47U
+ PD=3.26U
M$124 \$311 \$313 VDD VDD pfet_03v3 L=0.28U W=1U AS=0.65P AD=0.42P PS=3.3U
+ PD=1.84U
M$125 VDD \$272 \$311 VDD pfet_03v3 L=0.28U W=1U AS=0.42P AD=0.735P PS=1.84U
+ PD=2.47U
M$126 \$314 \$311 VDD VDD pfet_03v3 L=0.28U W=1U AS=0.735P AD=0.63P PS=2.47U
+ PD=3.26U
M$127 \$270 \$314 VDD VDD pfet_03v3 L=0.28U W=1U AS=0.56P AD=0.65P PS=3.12U
+ PD=3.3U
M$128 IPG12 \$270 E12 VDD pfet_03v3 L=0.28U W=1U AS=0.65P AD=0.65P PS=3.3U
+ PD=3.3U
M$129 \$345 \$344 VDD VDD pfet_03v3 L=0.28U W=1U AS=0.76P AD=0.65P PS=3.52U
+ PD=3.3U
M$130 VDD \$345 \$346 VDD pfet_03v3 L=0.28U W=1U AS=0.65P AD=0.65P PS=3.3U
+ PD=3.3U
M$131 \$346 RSTN VDD VDD pfet_03v3 L=0.28U W=1U AS=0.65P AD=0.65P PS=3.3U
+ PD=3.3U
M$132 \$344 \$331 \$346 VDD pfet_03v3 L=0.28U W=1U AS=0.65P AD=0.59P PS=3.3U
+ PD=3.18U
M$133 \$348 EN11 \$344 VDD pfet_03v3 L=0.28U W=1U AS=0.63P AD=0.605P PS=3.26U
+ PD=3.21U
M$134 VDD \$349 \$348 VDD pfet_03v3 L=0.28U W=1U AS=0.63P AD=0.54P PS=3.26U
+ PD=3.08U
M$135 VDD \$331 \$349 VDD pfet_03v3 L=0.28U W=1U AS=0.63P AD=0.64P PS=3.26U
+ PD=3.28U
M$136 VDD CLK \$331 VDD pfet_03v3 L=0.28U W=1U AS=0.65P AD=0.65P PS=3.3U PD=3.3U
M$137 \$350 \$19 VDD VDD pfet_03v3 L=0.28U W=1U AS=0.65P AD=0.42P PS=3.3U
+ PD=1.84U
M$138 VDD \$391 \$350 VDD pfet_03v3 L=0.28U W=1U AS=0.42P AD=0.735P PS=1.84U
+ PD=2.47U
M$139 \$351 \$350 VDD VDD pfet_03v3 L=0.28U W=1U AS=0.735P AD=0.64P PS=2.47U
+ PD=3.28U
M$140 \$352 \$351 VDD VDD pfet_03v3 L=0.28U W=1U AS=0.65P AD=0.42P PS=3.3U
+ PD=1.84U
M$141 VDD \$353 \$352 VDD pfet_03v3 L=0.28U W=1U AS=0.42P AD=0.735P PS=1.84U
+ PD=2.47U
M$142 \$354 \$352 VDD VDD pfet_03v3 L=0.28U W=1U AS=0.735P AD=0.635P PS=2.47U
+ PD=3.27U
M$143 \$355 \$354 VDD VDD pfet_03v3 L=0.28U W=1U AS=0.55P AD=0.65P PS=3.1U
+ PD=3.3U
M$144 REC11 \$355 E11 VDD pfet_03v3 L=0.28U W=1U AS=0.65P AD=0.65P PS=3.3U
+ PD=3.3U
M$145 \$387 \$331 \$345 VDD pfet_03v3 L=0.28U W=1U AS=0.65P AD=0.65P PS=3.3U
+ PD=3.3U
M$146 \$389 RSTN VDD VDD pfet_03v3 L=0.28U W=1U AS=0.65P AD=0.65P PS=3.3U
+ PD=3.3U
M$147 \$389 \$387 VDD VDD pfet_03v3 L=0.28U W=1U AS=0.65P AD=0.65P PS=3.3U
+ PD=3.3U
M$148 \$414 \$389 \$387 VDD pfet_03v3 L=0.28U W=1U AS=0.65P AD=0.65P PS=3.3U
+ PD=3.3U
M$149 VDD \$349 \$414 VDD pfet_03v3 L=0.28U W=1U AS=0.65P AD=0.65P PS=3.3U
+ PD=3.3U
M$150 \$391 \$389 VDD VDD pfet_03v3 L=0.28U W=1U AS=0.65P AD=0.65P PS=3.3U
+ PD=3.3U
M$151 \$392 \$389 VDD VDD pfet_03v3 L=0.28U W=1U AS=0.65P AD=0.65P PS=3.3U
+ PD=3.3U
M$152 \$393 \$392 VDD VDD pfet_03v3 L=0.28U W=1U AS=0.65P AD=0.65P PS=3.3U
+ PD=3.3U
M$153 \$394 \$60 VDD VDD pfet_03v3 L=0.28U W=1U AS=0.65P AD=0.42P PS=3.3U
+ PD=1.84U
M$154 VDD \$391 \$394 VDD pfet_03v3 L=0.28U W=1U AS=0.42P AD=0.735P PS=1.84U
+ PD=2.47U
M$155 \$397 \$394 VDD VDD pfet_03v3 L=0.28U W=1U AS=0.735P AD=0.63P PS=2.47U
+ PD=3.26U
M$156 \$395 \$397 VDD VDD pfet_03v3 L=0.28U W=1U AS=0.65P AD=0.42P PS=3.3U
+ PD=1.84U
M$157 VDD \$355 \$395 VDD pfet_03v3 L=0.28U W=1U AS=0.42P AD=0.735P PS=1.84U
+ PD=2.47U
M$158 \$398 \$395 VDD VDD pfet_03v3 L=0.28U W=1U AS=0.735P AD=0.63P PS=2.47U
+ PD=3.26U
M$159 \$353 \$398 VDD VDD pfet_03v3 L=0.28U W=1U AS=0.56P AD=0.65P PS=3.12U
+ PD=3.3U
M$160 IPG11 \$353 E11 VDD pfet_03v3 L=0.28U W=1U AS=0.65P AD=0.65P PS=3.3U
+ PD=3.3U
M$161 \$429 \$428 VDD VDD pfet_03v3 L=0.28U W=1U AS=0.76P AD=0.65P PS=3.52U
+ PD=3.3U
M$162 VDD \$429 \$430 VDD pfet_03v3 L=0.28U W=1U AS=0.65P AD=0.65P PS=3.3U
+ PD=3.3U
M$163 \$430 RSTN VDD VDD pfet_03v3 L=0.28U W=1U AS=0.65P AD=0.65P PS=3.3U
+ PD=3.3U
M$164 \$428 \$415 \$430 VDD pfet_03v3 L=0.28U W=1U AS=0.65P AD=0.59P PS=3.3U
+ PD=3.18U
M$165 \$432 EN10 \$428 VDD pfet_03v3 L=0.28U W=1U AS=0.63P AD=0.605P PS=3.26U
+ PD=3.21U
M$166 VDD \$433 \$432 VDD pfet_03v3 L=0.28U W=1U AS=0.63P AD=0.54P PS=3.26U
+ PD=3.08U
M$167 VDD \$415 \$433 VDD pfet_03v3 L=0.28U W=1U AS=0.63P AD=0.64P PS=3.26U
+ PD=3.28U
M$168 VDD CLK \$415 VDD pfet_03v3 L=0.28U W=1U AS=0.65P AD=0.65P PS=3.3U PD=3.3U
M$169 \$434 \$19 VDD VDD pfet_03v3 L=0.28U W=1U AS=0.65P AD=0.42P PS=3.3U
+ PD=1.84U
M$170 VDD \$475 \$434 VDD pfet_03v3 L=0.28U W=1U AS=0.42P AD=0.735P PS=1.84U
+ PD=2.47U
M$171 \$435 \$434 VDD VDD pfet_03v3 L=0.28U W=1U AS=0.735P AD=0.64P PS=2.47U
+ PD=3.28U
M$172 \$436 \$435 VDD VDD pfet_03v3 L=0.28U W=1U AS=0.65P AD=0.42P PS=3.3U
+ PD=1.84U
M$173 VDD \$437 \$436 VDD pfet_03v3 L=0.28U W=1U AS=0.42P AD=0.735P PS=1.84U
+ PD=2.47U
M$174 \$438 \$436 VDD VDD pfet_03v3 L=0.28U W=1U AS=0.735P AD=0.635P PS=2.47U
+ PD=3.27U
M$175 \$439 \$438 VDD VDD pfet_03v3 L=0.28U W=1U AS=0.55P AD=0.65P PS=3.1U
+ PD=3.3U
M$176 REC10 \$439 E10 VDD pfet_03v3 L=0.28U W=1U AS=0.65P AD=0.65P PS=3.3U
+ PD=3.3U
M$177 \$471 \$415 \$429 VDD pfet_03v3 L=0.28U W=1U AS=0.65P AD=0.65P PS=3.3U
+ PD=3.3U
M$178 \$473 RSTN VDD VDD pfet_03v3 L=0.28U W=1U AS=0.65P AD=0.65P PS=3.3U
+ PD=3.3U
M$179 \$473 \$471 VDD VDD pfet_03v3 L=0.28U W=1U AS=0.65P AD=0.65P PS=3.3U
+ PD=3.3U
M$180 \$498 \$473 \$471 VDD pfet_03v3 L=0.28U W=1U AS=0.65P AD=0.65P PS=3.3U
+ PD=3.3U
M$181 VDD \$433 \$498 VDD pfet_03v3 L=0.28U W=1U AS=0.65P AD=0.65P PS=3.3U
+ PD=3.3U
M$182 \$475 \$473 VDD VDD pfet_03v3 L=0.28U W=1U AS=0.65P AD=0.65P PS=3.3U
+ PD=3.3U
M$183 \$476 \$473 VDD VDD pfet_03v3 L=0.28U W=1U AS=0.65P AD=0.65P PS=3.3U
+ PD=3.3U
M$184 \$477 \$476 VDD VDD pfet_03v3 L=0.28U W=1U AS=0.65P AD=0.65P PS=3.3U
+ PD=3.3U
M$185 \$478 \$60 VDD VDD pfet_03v3 L=0.28U W=1U AS=0.65P AD=0.42P PS=3.3U
+ PD=1.84U
M$186 VDD \$475 \$478 VDD pfet_03v3 L=0.28U W=1U AS=0.42P AD=0.735P PS=1.84U
+ PD=2.47U
M$187 \$481 \$478 VDD VDD pfet_03v3 L=0.28U W=1U AS=0.735P AD=0.63P PS=2.47U
+ PD=3.26U
M$188 \$479 \$481 VDD VDD pfet_03v3 L=0.28U W=1U AS=0.65P AD=0.42P PS=3.3U
+ PD=1.84U
M$189 VDD \$439 \$479 VDD pfet_03v3 L=0.28U W=1U AS=0.42P AD=0.735P PS=1.84U
+ PD=2.47U
M$190 \$482 \$479 VDD VDD pfet_03v3 L=0.28U W=1U AS=0.735P AD=0.63P PS=2.47U
+ PD=3.26U
M$191 \$437 \$482 VDD VDD pfet_03v3 L=0.28U W=1U AS=0.56P AD=0.65P PS=3.12U
+ PD=3.3U
M$192 IPG10 \$437 E10 VDD pfet_03v3 L=0.28U W=1U AS=0.65P AD=0.65P PS=3.3U
+ PD=3.3U
M$193 \$513 \$512 VDD VDD pfet_03v3 L=0.28U W=1U AS=0.76P AD=0.65P PS=3.52U
+ PD=3.3U
M$194 VDD \$513 \$514 VDD pfet_03v3 L=0.28U W=1U AS=0.65P AD=0.65P PS=3.3U
+ PD=3.3U
M$195 \$514 RSTN VDD VDD pfet_03v3 L=0.28U W=1U AS=0.65P AD=0.65P PS=3.3U
+ PD=3.3U
M$196 \$512 \$499 \$514 VDD pfet_03v3 L=0.28U W=1U AS=0.65P AD=0.59P PS=3.3U
+ PD=3.18U
M$197 \$516 EN9 \$512 VDD pfet_03v3 L=0.28U W=1U AS=0.63P AD=0.605P PS=3.26U
+ PD=3.21U
M$198 VDD \$517 \$516 VDD pfet_03v3 L=0.28U W=1U AS=0.63P AD=0.54P PS=3.26U
+ PD=3.08U
M$199 VDD \$499 \$517 VDD pfet_03v3 L=0.28U W=1U AS=0.63P AD=0.64P PS=3.26U
+ PD=3.28U
M$200 VDD CLK \$499 VDD pfet_03v3 L=0.28U W=1U AS=0.65P AD=0.65P PS=3.3U PD=3.3U
M$201 \$518 \$19 VDD VDD pfet_03v3 L=0.28U W=1U AS=0.65P AD=0.42P PS=3.3U
+ PD=1.84U
M$202 VDD \$519 \$518 VDD pfet_03v3 L=0.28U W=1U AS=0.42P AD=0.735P PS=1.84U
+ PD=2.47U
M$203 \$520 \$518 VDD VDD pfet_03v3 L=0.28U W=1U AS=0.735P AD=0.64P PS=2.47U
+ PD=3.28U
M$204 \$521 \$520 VDD VDD pfet_03v3 L=0.28U W=1U AS=0.65P AD=0.42P PS=3.3U
+ PD=1.84U
M$205 VDD \$522 \$521 VDD pfet_03v3 L=0.28U W=1U AS=0.42P AD=0.735P PS=1.84U
+ PD=2.47U
M$206 \$523 \$521 VDD VDD pfet_03v3 L=0.28U W=1U AS=0.735P AD=0.635P PS=2.47U
+ PD=3.27U
M$207 \$524 \$523 VDD VDD pfet_03v3 L=0.28U W=1U AS=0.55P AD=0.65P PS=3.1U
+ PD=3.3U
M$208 REC9 \$524 E9 VDD pfet_03v3 L=0.28U W=1U AS=0.65P AD=0.65P PS=3.3U PD=3.3U
M$209 \$565 \$584 VDD VDD pfet_03v3 L=0.28U W=1U AS=0.76P AD=0.65P PS=3.52U
+ PD=3.3U
M$210 VDD \$565 \$566 VDD pfet_03v3 L=0.28U W=1U AS=0.65P AD=0.65P PS=3.3U
+ PD=3.3U
M$211 \$566 RSTN VDD VDD pfet_03v3 L=0.28U W=1U AS=0.65P AD=0.65P PS=3.3U
+ PD=3.3U
M$212 \$584 \$564 \$566 VDD pfet_03v3 L=0.28U W=1U AS=0.65P AD=0.59P PS=3.3U
+ PD=3.18U
M$213 \$585 MODE \$584 VDD pfet_03v3 L=0.28U W=1U AS=0.63P AD=0.605P PS=3.26U
+ PD=3.21U
M$214 VDD \$597 \$585 VDD pfet_03v3 L=0.28U W=1U AS=0.63P AD=0.54P PS=3.26U
+ PD=3.08U
M$215 VDD \$564 \$597 VDD pfet_03v3 L=0.28U W=1U AS=0.63P AD=0.64P PS=3.26U
+ PD=3.28U
M$216 VDD CLK \$564 VDD pfet_03v3 L=0.28U W=1U AS=0.65P AD=0.65P PS=3.3U PD=3.3U
M$217 \$558 \$556 VDD VDD pfet_03v3 L=0.28U W=1U AS=0.65P AD=0.65P PS=3.3U
+ PD=3.3U
M$218 \$586 \$558 \$556 VDD pfet_03v3 L=0.28U W=1U AS=0.65P AD=0.65P PS=3.3U
+ PD=3.3U
M$219 VDD \$517 \$586 VDD pfet_03v3 L=0.28U W=1U AS=0.65P AD=0.65P PS=3.3U
+ PD=3.3U
M$220 \$519 \$558 VDD VDD pfet_03v3 L=0.28U W=1U AS=0.65P AD=0.65P PS=3.3U
+ PD=3.3U
M$221 \$560 \$558 VDD VDD pfet_03v3 L=0.28U W=1U AS=0.65P AD=0.65P PS=3.3U
+ PD=3.3U
M$222 \$561 \$560 VDD VDD pfet_03v3 L=0.28U W=1U AS=0.65P AD=0.65P PS=3.3U
+ PD=3.3U
M$223 \$587 \$60 VDD VDD pfet_03v3 L=0.28U W=1U AS=0.65P AD=0.42P PS=3.3U
+ PD=1.84U
M$224 VDD \$519 \$587 VDD pfet_03v3 L=0.28U W=1U AS=0.42P AD=0.735P PS=1.84U
+ PD=2.47U
M$225 \$567 \$587 VDD VDD pfet_03v3 L=0.28U W=1U AS=0.735P AD=0.63P PS=2.47U
+ PD=3.26U
M$226 \$556 \$499 \$513 VDD pfet_03v3 L=0.28U W=1U AS=0.65P AD=0.65P PS=3.3U
+ PD=3.3U
M$227 \$558 RSTN VDD VDD pfet_03v3 L=0.28U W=1U AS=0.65P AD=0.65P PS=3.3U
+ PD=3.3U
M$228 \$633 \$632 VDD VDD pfet_03v3 L=0.28U W=1U AS=0.65P AD=0.42P PS=3.3U
+ PD=1.84U
M$229 VDD \$649 \$633 VDD pfet_03v3 L=0.28U W=1U AS=0.42P AD=0.735P PS=1.84U
+ PD=2.47U
M$230 \$634 \$633 VDD VDD pfet_03v3 L=0.28U W=1U AS=0.735P AD=0.635P PS=2.47U
+ PD=3.27U
M$231 \$562 \$567 VDD VDD pfet_03v3 L=0.28U W=1U AS=0.65P AD=0.42P PS=3.3U
+ PD=1.84U
M$232 VDD \$524 \$562 VDD pfet_03v3 L=0.28U W=1U AS=0.42P AD=0.735P PS=1.84U
+ PD=2.47U
M$233 \$568 \$562 VDD VDD pfet_03v3 L=0.28U W=1U AS=0.735P AD=0.63P PS=2.47U
+ PD=3.26U
M$234 \$635 \$634 VDD VDD pfet_03v3 L=0.28U W=1U AS=0.55P AD=0.65P PS=3.1U
+ PD=3.3U
M$235 \$522 \$568 VDD VDD pfet_03v3 L=0.28U W=1U AS=0.56P AD=0.65P PS=3.12U
+ PD=3.3U
M$236 REC8 \$635 E8 VDD pfet_03v3 L=0.28U W=1U AS=0.65P AD=0.65P PS=3.3U PD=3.3U
M$237 IPG9 \$522 E9 VDD pfet_03v3 L=0.28U W=1U AS=0.65P AD=0.65P PS=3.3U PD=3.3U
M$238 \$627 \$646 VDD VDD pfet_03v3 L=0.28U W=1U AS=0.76P AD=0.65P PS=3.52U
+ PD=3.3U
M$239 VDD \$627 \$628 VDD pfet_03v3 L=0.28U W=1U AS=0.65P AD=0.65P PS=3.3U
+ PD=3.3U
M$240 \$628 RSTN VDD VDD pfet_03v3 L=0.28U W=1U AS=0.65P AD=0.65P PS=3.3U
+ PD=3.3U
M$241 \$646 \$626 \$628 VDD pfet_03v3 L=0.28U W=1U AS=0.65P AD=0.59P PS=3.3U
+ PD=3.18U
M$242 \$630 EN8 \$646 VDD pfet_03v3 L=0.28U W=1U AS=0.63P AD=0.605P PS=3.26U
+ PD=3.21U
M$243 VDD \$647 \$630 VDD pfet_03v3 L=0.28U W=1U AS=0.63P AD=0.54P PS=3.26U
+ PD=3.08U
M$244 VDD \$626 \$647 VDD pfet_03v3 L=0.28U W=1U AS=0.63P AD=0.64P PS=3.26U
+ PD=3.28U
M$245 VDD CLK \$626 VDD pfet_03v3 L=0.28U W=1U AS=0.65P AD=0.65P PS=3.3U PD=3.3U
M$246 \$631 \$19 VDD VDD pfet_03v3 L=0.28U W=1U AS=0.65P AD=0.42P PS=3.3U
+ PD=1.84U
M$247 VDD \$648 \$631 VDD pfet_03v3 L=0.28U W=1U AS=0.42P AD=0.735P PS=1.84U
+ PD=2.47U
M$248 \$632 \$631 VDD VDD pfet_03v3 L=0.28U W=1U AS=0.735P AD=0.64P PS=2.47U
+ PD=3.28U
M$249 \$621 \$564 \$565 VDD pfet_03v3 L=0.28U W=1U AS=0.65P AD=0.65P PS=3.3U
+ PD=3.3U
M$250 \$623 RSTN VDD VDD pfet_03v3 L=0.28U W=1U AS=0.65P AD=0.65P PS=3.3U
+ PD=3.3U
M$251 \$623 \$621 VDD VDD pfet_03v3 L=0.28U W=1U AS=0.65P AD=0.65P PS=3.3U
+ PD=3.3U
M$252 \$662 \$623 \$621 VDD pfet_03v3 L=0.28U W=1U AS=0.65P AD=0.65P PS=3.3U
+ PD=3.3U
M$253 VDD \$597 \$662 VDD pfet_03v3 L=0.28U W=1U AS=0.65P AD=0.65P PS=3.3U
+ PD=3.3U
M$254 \$19 \$623 VDD VDD pfet_03v3 L=0.28U W=1U AS=0.65P AD=0.65P PS=3.3U
+ PD=3.3U
M$255 \$625 \$623 VDD VDD pfet_03v3 L=0.28U W=1U AS=0.65P AD=0.65P PS=3.3U
+ PD=3.3U
M$256 \$60 \$625 VDD VDD pfet_03v3 L=0.28U W=1U AS=0.65P AD=0.65P PS=3.3U
+ PD=3.3U
M$257 \$677 \$675 VDD VDD pfet_03v3 L=0.28U W=1U AS=0.65P AD=0.65P PS=3.3U
+ PD=3.3U
M$258 \$715 \$677 \$675 VDD pfet_03v3 L=0.28U W=1U AS=0.65P AD=0.65P PS=3.3U
+ PD=3.3U
M$259 VDD \$647 \$715 VDD pfet_03v3 L=0.28U W=1U AS=0.65P AD=0.65P PS=3.3U
+ PD=3.3U
M$260 \$648 \$677 VDD VDD pfet_03v3 L=0.28U W=1U AS=0.65P AD=0.65P PS=3.3U
+ PD=3.3U
M$261 \$679 \$677 VDD VDD pfet_03v3 L=0.28U W=1U AS=0.65P AD=0.65P PS=3.3U
+ PD=3.3U
M$262 \$680 \$679 VDD VDD pfet_03v3 L=0.28U W=1U AS=0.65P AD=0.65P PS=3.3U
+ PD=3.3U
M$263 \$681 \$60 VDD VDD pfet_03v3 L=0.28U W=1U AS=0.65P AD=0.42P PS=3.3U
+ PD=1.84U
M$264 VDD \$648 \$681 VDD pfet_03v3 L=0.28U W=1U AS=0.42P AD=0.735P PS=1.84U
+ PD=2.47U
M$265 \$698 \$681 VDD VDD pfet_03v3 L=0.28U W=1U AS=0.735P AD=0.63P PS=2.47U
+ PD=3.26U
M$266 \$675 \$626 \$627 VDD pfet_03v3 L=0.28U W=1U AS=0.65P AD=0.65P PS=3.3U
+ PD=3.3U
M$267 \$677 RSTN VDD VDD pfet_03v3 L=0.28U W=1U AS=0.65P AD=0.65P PS=3.3U
+ PD=3.3U
M$268 \$682 \$698 VDD VDD pfet_03v3 L=0.28U W=1U AS=0.65P AD=0.42P PS=3.3U
+ PD=1.84U
M$269 VDD \$635 \$682 VDD pfet_03v3 L=0.28U W=1U AS=0.42P AD=0.735P PS=1.84U
+ PD=2.47U
M$270 \$699 \$682 VDD VDD pfet_03v3 L=0.28U W=1U AS=0.735P AD=0.63P PS=2.47U
+ PD=3.26U
M$271 \$737 \$736 VDD VDD pfet_03v3 L=0.28U W=1U AS=0.65P AD=0.42P PS=3.3U
+ PD=1.84U
M$272 VDD \$738 \$737 VDD pfet_03v3 L=0.28U W=1U AS=0.42P AD=0.735P PS=1.84U
+ PD=2.47U
M$273 \$739 \$737 VDD VDD pfet_03v3 L=0.28U W=1U AS=0.735P AD=0.635P PS=2.47U
+ PD=3.27U
M$274 \$649 \$699 VDD VDD pfet_03v3 L=0.28U W=1U AS=0.56P AD=0.65P PS=3.12U
+ PD=3.3U
M$275 \$740 \$739 VDD VDD pfet_03v3 L=0.28U W=1U AS=0.55P AD=0.65P PS=3.1U
+ PD=3.3U
M$276 IPG8 \$649 E8 VDD pfet_03v3 L=0.28U W=1U AS=0.65P AD=0.65P PS=3.3U PD=3.3U
M$277 REC7 \$740 E7 VDD pfet_03v3 L=0.28U W=1U AS=0.65P AD=0.65P PS=3.3U PD=3.3U
M$278 \$730 \$729 VDD VDD pfet_03v3 L=0.28U W=1U AS=0.76P AD=0.65P PS=3.52U
+ PD=3.3U
M$279 VDD \$730 \$731 VDD pfet_03v3 L=0.28U W=1U AS=0.65P AD=0.65P PS=3.3U
+ PD=3.3U
M$280 \$731 RSTN VDD VDD pfet_03v3 L=0.28U W=1U AS=0.65P AD=0.65P PS=3.3U
+ PD=3.3U
M$281 \$729 \$716 \$731 VDD pfet_03v3 L=0.28U W=1U AS=0.65P AD=0.59P PS=3.3U
+ PD=3.18U
M$282 \$733 EN7 \$729 VDD pfet_03v3 L=0.28U W=1U AS=0.63P AD=0.605P PS=3.26U
+ PD=3.21U
M$283 VDD \$734 \$733 VDD pfet_03v3 L=0.28U W=1U AS=0.63P AD=0.54P PS=3.26U
+ PD=3.08U
M$284 VDD \$716 \$734 VDD pfet_03v3 L=0.28U W=1U AS=0.63P AD=0.64P PS=3.26U
+ PD=3.28U
M$285 VDD CLK \$716 VDD pfet_03v3 L=0.28U W=1U AS=0.65P AD=0.65P PS=3.3U PD=3.3U
M$286 \$735 \$19 VDD VDD pfet_03v3 L=0.28U W=1U AS=0.65P AD=0.42P PS=3.3U
+ PD=1.84U
M$287 VDD \$776 \$735 VDD pfet_03v3 L=0.28U W=1U AS=0.42P AD=0.735P PS=1.84U
+ PD=2.47U
M$288 \$736 \$735 VDD VDD pfet_03v3 L=0.28U W=1U AS=0.735P AD=0.64P PS=2.47U
+ PD=3.28U
M$289 \$772 \$716 \$730 VDD pfet_03v3 L=0.28U W=1U AS=0.65P AD=0.65P PS=3.3U
+ PD=3.3U
M$290 \$774 RSTN VDD VDD pfet_03v3 L=0.28U W=1U AS=0.65P AD=0.65P PS=3.3U
+ PD=3.3U
M$291 \$774 \$772 VDD VDD pfet_03v3 L=0.28U W=1U AS=0.65P AD=0.65P PS=3.3U
+ PD=3.3U
M$292 \$799 \$774 \$772 VDD pfet_03v3 L=0.28U W=1U AS=0.65P AD=0.65P PS=3.3U
+ PD=3.3U
M$293 VDD \$734 \$799 VDD pfet_03v3 L=0.28U W=1U AS=0.65P AD=0.65P PS=3.3U
+ PD=3.3U
M$294 \$776 \$774 VDD VDD pfet_03v3 L=0.28U W=1U AS=0.65P AD=0.65P PS=3.3U
+ PD=3.3U
M$295 \$777 \$774 VDD VDD pfet_03v3 L=0.28U W=1U AS=0.65P AD=0.65P PS=3.3U
+ PD=3.3U
M$296 \$778 \$777 VDD VDD pfet_03v3 L=0.28U W=1U AS=0.65P AD=0.65P PS=3.3U
+ PD=3.3U
M$297 \$779 \$60 VDD VDD pfet_03v3 L=0.28U W=1U AS=0.65P AD=0.42P PS=3.3U
+ PD=1.84U
M$298 VDD \$776 \$779 VDD pfet_03v3 L=0.28U W=1U AS=0.42P AD=0.735P PS=1.84U
+ PD=2.47U
M$299 \$782 \$779 VDD VDD pfet_03v3 L=0.28U W=1U AS=0.735P AD=0.63P PS=2.47U
+ PD=3.26U
M$300 \$780 \$782 VDD VDD pfet_03v3 L=0.28U W=1U AS=0.65P AD=0.42P PS=3.3U
+ PD=1.84U
M$301 VDD \$740 \$780 VDD pfet_03v3 L=0.28U W=1U AS=0.42P AD=0.735P PS=1.84U
+ PD=2.47U
M$302 \$783 \$780 VDD VDD pfet_03v3 L=0.28U W=1U AS=0.735P AD=0.63P PS=2.47U
+ PD=3.26U
M$303 \$738 \$783 VDD VDD pfet_03v3 L=0.28U W=1U AS=0.56P AD=0.65P PS=3.12U
+ PD=3.3U
M$304 IPG7 \$738 E7 VDD pfet_03v3 L=0.28U W=1U AS=0.65P AD=0.65P PS=3.3U PD=3.3U
M$305 \$814 \$813 VDD VDD pfet_03v3 L=0.28U W=1U AS=0.76P AD=0.65P PS=3.52U
+ PD=3.3U
M$306 VDD \$814 \$815 VDD pfet_03v3 L=0.28U W=1U AS=0.65P AD=0.65P PS=3.3U
+ PD=3.3U
M$307 \$815 RSTN VDD VDD pfet_03v3 L=0.28U W=1U AS=0.65P AD=0.65P PS=3.3U
+ PD=3.3U
M$308 \$813 \$812 \$815 VDD pfet_03v3 L=0.28U W=1U AS=0.65P AD=0.59P PS=3.3U
+ PD=3.18U
M$309 \$817 EN6 \$813 VDD pfet_03v3 L=0.28U W=1U AS=0.63P AD=0.605P PS=3.26U
+ PD=3.21U
M$310 VDD \$818 \$817 VDD pfet_03v3 L=0.28U W=1U AS=0.63P AD=0.54P PS=3.26U
+ PD=3.08U
M$311 VDD \$812 \$818 VDD pfet_03v3 L=0.28U W=1U AS=0.63P AD=0.64P PS=3.26U
+ PD=3.28U
M$312 VDD CLK \$812 VDD pfet_03v3 L=0.28U W=1U AS=0.65P AD=0.65P PS=3.3U PD=3.3U
M$313 \$819 \$19 VDD VDD pfet_03v3 L=0.28U W=1U AS=0.65P AD=0.42P PS=3.3U
+ PD=1.84U
M$314 VDD \$820 \$819 VDD pfet_03v3 L=0.28U W=1U AS=0.42P AD=0.735P PS=1.84U
+ PD=2.47U
M$315 \$821 \$819 VDD VDD pfet_03v3 L=0.28U W=1U AS=0.735P AD=0.64P PS=2.47U
+ PD=3.28U
M$316 \$822 \$821 VDD VDD pfet_03v3 L=0.28U W=1U AS=0.65P AD=0.42P PS=3.3U
+ PD=1.84U
M$317 VDD \$823 \$822 VDD pfet_03v3 L=0.28U W=1U AS=0.42P AD=0.735P PS=1.84U
+ PD=2.47U
M$318 \$824 \$822 VDD VDD pfet_03v3 L=0.28U W=1U AS=0.735P AD=0.635P PS=2.47U
+ PD=3.27U
M$319 \$825 \$824 VDD VDD pfet_03v3 L=0.28U W=1U AS=0.55P AD=0.65P PS=3.1U
+ PD=3.3U
M$320 REC6 \$825 E6 VDD pfet_03v3 L=0.28U W=1U AS=0.65P AD=0.65P PS=3.3U PD=3.3U
M$321 \$857 \$812 \$814 VDD pfet_03v3 L=0.28U W=1U AS=0.65P AD=0.65P PS=3.3U
+ PD=3.3U
M$322 \$859 RSTN VDD VDD pfet_03v3 L=0.28U W=1U AS=0.65P AD=0.65P PS=3.3U
+ PD=3.3U
M$323 \$859 \$857 VDD VDD pfet_03v3 L=0.28U W=1U AS=0.65P AD=0.65P PS=3.3U
+ PD=3.3U
M$324 \$883 \$859 \$857 VDD pfet_03v3 L=0.28U W=1U AS=0.65P AD=0.65P PS=3.3U
+ PD=3.3U
M$325 VDD \$818 \$883 VDD pfet_03v3 L=0.28U W=1U AS=0.65P AD=0.65P PS=3.3U
+ PD=3.3U
M$326 \$820 \$859 VDD VDD pfet_03v3 L=0.28U W=1U AS=0.65P AD=0.65P PS=3.3U
+ PD=3.3U
M$327 \$861 \$859 VDD VDD pfet_03v3 L=0.28U W=1U AS=0.65P AD=0.65P PS=3.3U
+ PD=3.3U
M$328 \$862 \$861 VDD VDD pfet_03v3 L=0.28U W=1U AS=0.65P AD=0.65P PS=3.3U
+ PD=3.3U
M$329 \$863 \$60 VDD VDD pfet_03v3 L=0.28U W=1U AS=0.65P AD=0.42P PS=3.3U
+ PD=1.84U
M$330 VDD \$820 \$863 VDD pfet_03v3 L=0.28U W=1U AS=0.42P AD=0.735P PS=1.84U
+ PD=2.47U
M$331 \$864 \$863 VDD VDD pfet_03v3 L=0.28U W=1U AS=0.735P AD=0.63P PS=2.47U
+ PD=3.26U
M$332 \$865 \$864 VDD VDD pfet_03v3 L=0.28U W=1U AS=0.65P AD=0.42P PS=3.3U
+ PD=1.84U
M$333 VDD \$825 \$865 VDD pfet_03v3 L=0.28U W=1U AS=0.42P AD=0.735P PS=1.84U
+ PD=2.47U
M$334 \$866 \$865 VDD VDD pfet_03v3 L=0.28U W=1U AS=0.735P AD=0.63P PS=2.47U
+ PD=3.26U
M$335 \$823 \$866 VDD VDD pfet_03v3 L=0.28U W=1U AS=0.56P AD=0.65P PS=3.12U
+ PD=3.3U
M$336 IPG6 \$823 E6 VDD pfet_03v3 L=0.28U W=1U AS=0.65P AD=0.65P PS=3.3U PD=3.3U
M$337 \$903 \$902 VDD VDD pfet_03v3 L=0.28U W=1U AS=0.76P AD=0.65P PS=3.52U
+ PD=3.3U
M$338 VDD \$903 \$904 VDD pfet_03v3 L=0.28U W=1U AS=0.65P AD=0.65P PS=3.3U
+ PD=3.3U
M$339 \$904 RSTN VDD VDD pfet_03v3 L=0.28U W=1U AS=0.65P AD=0.65P PS=3.3U
+ PD=3.3U
M$340 \$902 \$896 \$904 VDD pfet_03v3 L=0.28U W=1U AS=0.65P AD=0.59P PS=3.3U
+ PD=3.18U
M$341 \$907 EN5 \$902 VDD pfet_03v3 L=0.28U W=1U AS=0.63P AD=0.605P PS=3.26U
+ PD=3.21U
M$342 VDD \$905 \$907 VDD pfet_03v3 L=0.28U W=1U AS=0.63P AD=0.54P PS=3.26U
+ PD=3.08U
M$343 VDD \$896 \$905 VDD pfet_03v3 L=0.28U W=1U AS=0.63P AD=0.64P PS=3.26U
+ PD=3.28U
M$344 VDD CLK \$896 VDD pfet_03v3 L=0.28U W=1U AS=0.65P AD=0.65P PS=3.3U PD=3.3U
M$345 \$909 \$19 VDD VDD pfet_03v3 L=0.28U W=1U AS=0.65P AD=0.42P PS=3.3U
+ PD=1.84U
M$346 VDD \$908 \$909 VDD pfet_03v3 L=0.28U W=1U AS=0.42P AD=0.735P PS=1.84U
+ PD=2.47U
M$347 \$910 \$909 VDD VDD pfet_03v3 L=0.28U W=1U AS=0.735P AD=0.64P PS=2.47U
+ PD=3.28U