* NGSPICE file created from FULL.ext - technology: gf180mcuD

.subckt AND$2 a_n912_n1080# a_n1108_n1500# w_n898_n1046# a_n962_n1500# a_n206_n1400#
+ a_n966_n984# a_n359_n1400# a_n1112_n984# a_n719_n907# a_n780_n1500# w_n324_n1046#
+ w_n674_n1046# a_n688_n1202#
X0 a_n719_n907# a_n688_n1202# a_n780_n1500# a_n1108_n1500# nfet_03v3 ad=0.65p pd=3.3u as=0.42p ps=1.84u w=1u l=0.28u
X1 a_n780_n1500# a_n912_n1080# a_n962_n1500# a_n1108_n1500# nfet_03v3 ad=0.42p pd=1.84u as=0.63p ps=3.26u w=1u l=0.28u
X2 a_n1108_n1500# a_n719_n907# a_n359_n1400# a_n1108_n1500# nfet_03v3 ad=0.31p pd=2.24u as=0.2425p ps=1.97u w=0.5u l=0.28u
C0 a_n780_n1500# a_n688_n1202# 0.0047f
C1 a_n719_n907# a_n359_n1400# 0.12036f
C2 a_n912_n1080# a_n719_n907# 0.02475f
C3 a_n912_n1080# w_n898_n1046# 0.06384f
C4 a_n912_n1080# a_n1112_n984# 0
C5 w_n674_n1046# a_n912_n1080# 0.00504f
C6 a_n359_n1400# a_n688_n1202# 0.00215f
C7 a_n780_n1500# a_n962_n1500# 0.00599f
C8 a_n912_n1080# a_n688_n1202# 0.03899f
C9 a_n359_n1400# a_n962_n1500# 0.0074f
C10 a_n912_n1080# a_n962_n1500# 0.01438f
C11 a_n780_n1500# a_n359_n1400# 0.00123f
C12 a_n719_n907# w_n898_n1046# 0.00889f
C13 a_n719_n907# a_n1112_n984# 0.00206f
C14 w_n674_n1046# a_n719_n907# 0.02349f
C15 a_n719_n907# a_n688_n1202# 0.13145f
C16 w_n898_n1046# a_n688_n1202# 0.00418f
C17 w_n674_n1046# a_n688_n1202# 0.04973f
C18 a_n719_n907# w_n324_n1046# 0.06116f
C19 a_n912_n1080# a_n359_n1400# 0
C20 w_n324_n1046# a_n688_n1202# 0.00144f
C21 a_n719_n907# a_n962_n1500# 0.01277f
C22 a_n719_n907# a_n780_n1500# 0.01043f
C23 a_n962_n1500# a_n688_n1202# 0.00216f
C24 a_n359_n1400# a_n1108_n1500# 0.10054f
C25 a_n962_n1500# a_n1108_n1500# 0.15217f
C26 a_n719_n907# a_n1108_n1500# 0.73548f
C27 a_n688_n1202# a_n1108_n1500# 0.34773f
C28 a_n1112_n984# a_n1108_n1500# 0.26053f
C29 a_n912_n1080# a_n1108_n1500# 0.38694f
C30 w_n324_n1046# a_n1108_n1500# 0.19084f
C31 w_n674_n1046# a_n1108_n1500# 0.1813f
C32 w_n898_n1046# a_n1108_n1500# 0.18473f
.ends

.subckt AND$3 w_46_265# w_n528_265# a_n742_327# w_n304_265# a_n542_231# a_n318_109#
+ a_n738_n189# a_164_n89# a_n592_n189# a_n349_404# a_11_n89# a_n410_n189#
X0 a_n738_n189# a_n349_404# a_11_n89# a_n738_n189# nfet_03v3 ad=0.315p pd=2.26u as=0.2425p ps=1.97u w=0.5u l=0.28u
X1 a_n410_n189# a_n542_231# a_n592_n189# a_n738_n189# nfet_03v3 ad=0.42p pd=1.84u as=0.63p ps=3.26u w=1u l=0.28u
X2 a_n349_404# a_n318_109# a_n410_n189# a_n738_n189# nfet_03v3 ad=0.65p pd=3.3u as=0.42p ps=1.84u w=1u l=0.28u
C0 a_n542_231# w_n528_265# 0.06384f
C1 a_n542_231# a_11_n89# 0
C2 a_n318_109# a_n349_404# 0.13145f
C3 w_n304_265# a_n349_404# 0.02349f
C4 a_n349_404# a_n592_n189# 0.01277f
C5 a_n410_n189# a_n349_404# 0.01043f
C6 a_n349_404# w_n528_265# 0.00889f
C7 a_n318_109# w_n304_265# 0.04973f
C8 a_n318_109# a_n592_n189# 0.00216f
C9 a_n542_231# a_n742_327# 0
C10 a_n349_404# a_11_n89# 0.12036f
C11 a_n318_109# a_n410_n189# 0.0047f
C12 a_n318_109# w_n528_265# 0.00418f
C13 a_n318_109# a_11_n89# 0.00215f
C14 a_n410_n189# a_n592_n189# 0.00599f
C15 a_n349_404# w_46_265# 0.06116f
C16 a_n542_231# a_n349_404# 0.02475f
C17 a_11_n89# a_n592_n189# 0.0074f
C18 a_n318_109# w_46_265# 0.00144f
C19 a_n410_n189# a_11_n89# 0.00123f
C20 a_n318_109# a_n542_231# 0.03899f
C21 w_n304_265# a_n542_231# 0.00504f
C22 a_n349_404# a_n742_327# 0.00206f
C23 a_n542_231# a_n592_n189# 0.01438f
C24 a_11_n89# a_n738_n189# 0.10054f
C25 a_n592_n189# a_n738_n189# 0.15217f
C26 a_n349_404# a_n738_n189# 0.73548f
C27 a_n318_109# a_n738_n189# 0.34773f
C28 a_n742_327# a_n738_n189# 0.26053f
C29 a_n542_231# a_n738_n189# 0.38694f
C30 w_46_265# a_n738_n189# 0.19084f
C31 w_n304_265# a_n738_n189# 0.1813f
C32 w_n528_265# a_n738_n189# 0.18473f
.ends

.subckt ROW a_5675_1286# a_5951_2129# a_9592_2447# a_7247_1286# a_5263_2178# AND$3_0/a_164_n89#
+ a_7247_2178# a_4891_1225# a_5077_2694# AND$2_0/a_n719_n907# AND$2_0/a_n780_n1500#
+ GND a_5675_1802# a_9600_2649# a_7191_1226# a_7247_2694# a_7247_1802#
+ a_6695_1226# a_7821_2278# a_6316_1670# a_9656_2193# a_7191_2118# AND$3_0/a_n410_n189#
+ a_6198_1286# a_9600_1212# a_5315_1802# AND$3_0/a_n349_404# a_4203_1285# a_9470_2709#
+ a_6379_2178# a_9470_1272# a_7821_1286# a_4389_1285# a_7415_2118# a_9656_1272# a_6751_2178#
+ a_4575_1802# a_5619_1226#
XAND$2_0 a_7821_2278# GND GND GND a_9592_2447#
+ GND GND GND AND$2_0/a_n719_n907# AND$2_0/a_n780_n1500#
+ GND GND a_9600_1212# AND$2
XAND$3_0 GND GND GND GND a_7821_1286#
+ a_9600_2649# GND AND$3_0/a_164_n89# GND AND$3_0/a_n349_404#
+ GND AND$3_0/a_n410_n189# AND$3
X0 a_7821_1286# a_7247_1286# GND GND nfet_03v3 ad=0.3125p pd=2.25u as=0.2425p ps=1.97u w=0.5u l=0.28u
X1 GND a_7415_2118# a_7247_1286# GND pfet_03v3 ad=0.735p pd=2.47u as=0.42p ps=1.84u w=1u l=0.28u
X2 a_9600_1212# GND GND GND pfet_03v3 ad=0.65p pd=3.3u as=0.55p ps=3.1u w=1u l=0.28u
X3 a_7415_2118# a_5951_2129# GND GND nfet_03v3 ad=0.61p pd=3.22u as=0.61p ps=3.22u w=1u l=0.28u
X4 a_9656_1272# GND a_9470_1272# GND nfet_03v3 ad=0.63p pd=3.26u as=0.63p ps=3.26u w=1u l=0.28u
X5 a_7247_2694# a_7191_2118# GND GND pfet_03v3 ad=0.42p pd=1.84u as=0.65p ps=3.3u w=1u l=0.28u
X6 a_4389_1285# a_4891_1225# a_4575_1802# GND nfet_03v3 ad=0.61p pd=3.22u as=0.61p ps=3.22u w=1u l=0.28u
X7 a_9600_1212# GND GND GND nfet_03v3 ad=0.315p pd=2.26u as=0.2825p ps=2.13u w=0.5u l=0.28u
X8 a_5077_2694# a_6316_1670# a_4203_1285# GND pfet_03v3 ad=0.65p pd=3.3u as=0.65p ps=3.3u w=1u l=0.28u
X9 a_5263_2694# a_5951_2129# a_5077_2694# GND pfet_03v3 ad=0.65p pd=3.3u as=0.65p ps=3.3u w=1u l=0.28u
X10 a_7247_1286# a_7415_2118# a_7247_1802# GND nfet_03v3 ad=0.65p pd=3.3u as=0.42p ps=1.84u w=1u l=0.28u
X11 GND a_6695_1226# a_6316_1670# GND pfet_03v3 ad=0.65p pd=3.3u as=0.65p ps=3.3u w=1u l=0.28u
X12 a_7247_2694# a_7415_2118# a_7247_2178# GND nfet_03v3 ad=0.65p pd=3.3u as=0.42p ps=1.84u w=1u l=0.28u
X13 a_4575_1802# a_4203_1285# GND GND nfet_03v3 ad=0.61p pd=3.22u as=0.61p ps=3.22u w=1u l=0.28u
X14 a_4203_1285# a_5315_1802# GND GND pfet_03v3 ad=0.65p pd=3.3u as=0.76p ps=3.52u w=1u l=0.28u
X15 a_6379_2178# a_5951_2129# GND GND pfet_03v3 ad=0.65p pd=3.3u as=0.65p ps=3.3u w=1u l=0.28u
X16 GND a_6316_1670# a_6198_1286# GND pfet_03v3 ad=0.64p pd=3.28u as=0.63p ps=3.26u w=1u l=0.28u
X17 a_5315_1802# a_6316_1670# a_4389_1285# GND pfet_03v3 ad=0.59p pd=3.18u as=0.65p ps=3.3u w=1u l=0.28u
X18 a_7247_1286# a_7191_1226# GND GND pfet_03v3 ad=0.42p pd=1.84u as=0.65p ps=3.3u w=1u l=0.28u
X19 GND a_6316_1670# a_5675_1802# GND nfet_03v3 ad=0.575p pd=3.15u as=0.61p ps=3.22u w=1u l=0.28u
X20 GND a_6198_1286# a_5675_1286# GND pfet_03v3 ad=0.54p pd=3.08u as=0.63p ps=3.26u w=1u l=0.28u
X21 GND a_6695_1226# a_6316_1670# GND nfet_03v3 ad=0.67p pd=3.34u as=0.63p ps=3.26u w=1u l=0.28u
X22 a_5951_2129# a_5077_2694# GND GND pfet_03v3 ad=0.65p pd=3.3u as=0.65p ps=3.3u w=1u l=0.28u
X23 a_6751_2178# a_6379_2178# GND GND nfet_03v3 ad=0.61p pd=3.22u as=0.61p ps=3.22u w=1u l=0.28u
X24 a_7821_2278# a_7247_2694# GND GND pfet_03v3 ad=0.63p pd=3.26u as=0.735p ps=2.47u w=1u l=0.28u
X25 GND a_6316_1670# a_6198_1286# GND nfet_03v3 ad=0.61p pd=3.22u as=0.61p ps=3.22u w=1u l=0.28u
X26 a_7415_2118# a_5951_2129# GND GND pfet_03v3 ad=0.65p pd=3.3u as=0.65p ps=3.3u w=1u l=0.28u
X27 a_5077_2694# a_6198_1286# a_4203_1285# GND nfet_03v3 ad=0.61p pd=3.22u as=0.715p ps=3.43u w=1u l=0.28u
X28 a_7247_2178# a_7191_2118# GND GND nfet_03v3 ad=0.42p pd=1.84u as=0.63p ps=3.26u w=1u l=0.28u
X29 a_7247_1802# a_7191_1226# GND GND nfet_03v3 ad=0.42p pd=1.84u as=0.63p ps=3.26u w=1u l=0.28u
X30 a_4389_1285# a_4891_1225# GND GND pfet_03v3 ad=0.65p pd=3.3u as=0.65p ps=3.3u w=1u l=0.28u
X31 a_5951_2129# a_4891_1225# GND GND pfet_03v3 ad=0.65p pd=3.3u as=0.65p ps=3.3u w=1u l=0.28u
X32 a_9600_2649# GND GND GND nfet_03v3 ad=0.315p pd=2.26u as=0.285p ps=2.14u w=0.5u l=0.28u
X33 a_5263_2178# a_5951_2129# a_5077_2694# GND nfet_03v3 ad=0.61p pd=3.22u as=0.61p ps=3.22u w=1u l=0.28u
X34 a_5315_1802# a_6198_1286# a_4389_1285# GND nfet_03v3 ad=0.61p pd=3.22u as=0.61p ps=3.22u w=1u l=0.28u
X35 GND a_4203_1285# a_4389_1285# GND pfet_03v3 ad=0.65p pd=3.3u as=0.65p ps=3.3u w=1u l=0.28u
X36 a_5675_1286# a_5619_1226# a_5315_1802# GND pfet_03v3 ad=0.605p pd=3.21u as=0.63p ps=3.26u w=1u l=0.28u
X37 a_7821_2278# a_7247_2694# GND GND nfet_03v3 ad=0.31p pd=2.24u as=0.2425p ps=1.97u w=0.5u l=0.28u
X38 GND a_7415_2118# a_7247_2694# GND pfet_03v3 ad=0.735p pd=2.47u as=0.42p ps=1.84u w=1u l=0.28u
X39 a_4518_2178# a_4891_1225# GND GND nfet_03v3 ad=0.61p pd=3.22u as=0.61p ps=3.22u w=1u l=0.28u
X40 a_6379_2178# a_5951_2129# GND GND nfet_03v3 ad=0.61p pd=3.22u as=0.61p ps=3.22u w=1u l=0.28u
X41 a_7821_1286# a_7247_1286# GND GND pfet_03v3 ad=0.64p pd=3.28u as=0.735p ps=2.47u w=1u l=0.28u
X42 a_9656_2193# a_9600_2649# a_9470_2709# GND pfet_03v3 ad=0.65p pd=3.3u as=0.65p ps=3.3u w=1u l=0.28u
X43 a_4203_1285# a_5315_1802# GND GND nfet_03v3 ad=0.61p pd=3.22u as=0.76p ps=3.52u w=1u l=0.28u
X44 a_9656_2193# a_9592_2447# a_9470_2709# GND nfet_03v3 ad=0.63p pd=3.26u as=0.63p ps=3.26u w=1u l=0.28u
X45 GND a_6198_1286# a_5263_2694# GND pfet_03v3 ad=0.65p pd=3.3u as=0.65p ps=3.3u w=1u l=0.28u
X46 a_9656_1272# a_9600_1212# a_9470_1272# GND pfet_03v3 ad=0.65p pd=3.3u as=0.65p ps=3.3u w=1u l=0.28u
X47 a_5675_1802# a_5619_1226# a_5315_1802# GND nfet_03v3 ad=0.61p pd=3.22u as=0.61p ps=3.22u w=1u l=0.28u
X48 a_5951_2129# a_5077_2694# a_4518_2178# GND nfet_03v3 ad=0.61p pd=3.22u as=0.61p ps=3.22u w=1u l=0.28u
X49 GND a_6316_1670# a_5263_2178# GND nfet_03v3 ad=0.61p pd=3.22u as=0.61p ps=3.22u w=1u l=0.28u
X50 a_6751_2178# a_6379_2178# GND GND pfet_03v3 ad=0.65p pd=3.3u as=0.65p ps=3.3u w=1u l=0.28u
X51 a_9600_2649# GND GND GND pfet_03v3 ad=0.65p pd=3.3u as=0.56p ps=3.12u w=1u l=0.28u
C0 a_6316_1670# a_5675_1286# 0.04809f
C1 a_6198_1286# a_4389_1285# 0.13561f
C2 a_6198_1286# a_4575_1802# 0.01339f
C3 a_6751_2178# a_5951_2129# 0
C4 AND$3_0/a_n349_404# AND$3_0/a_n410_n189# -0
C5 a_5951_2129# a_4203_1285# 0
C6 a_6316_1670# a_5077_2694# 0.30745f
C7 a_7821_2278# AND$2_0/a_n780_n1500# 0.00196f
C8 a_7191_1226# a_7247_1286# 0.01183f
C9 a_5263_2694# a_5951_2129# 0.01967f
C10 a_4891_1225# a_5077_2694# 0.14366f
C11 a_9600_1212# a_9656_2193# 0
C12 a_6198_1286# a_6695_1226# 0.00134f
C13 a_6695_1226# a_7247_1286# 0.00106f
C14 a_7415_2118# a_5315_1802# 0
C15 a_9600_1212# a_9470_2709# 0
C16 a_7821_2278# AND$2_0/a_n719_n907# 0.02181f
C17 a_9592_2447# a_7247_2694# -0.00321f
C18 a_9592_2447# a_7415_2118# 0
C19 AND$2_0/a_n719_n907# AND$2_0/a_n780_n1500# -0
C20 a_9592_2447# a_9600_1212# 0.07747f
C21 a_4575_1802# a_4389_1285# 0.06846f
C22 a_9600_2649# a_9656_2193# 0.09107f
C23 a_6198_1286# a_5619_1226# 0.03006f
C24 a_5077_2694# a_5263_2178# 0.03003f
C25 a_7247_2694# a_6751_2178# 0.02819f
C26 a_6751_2178# a_7415_2118# 0.06468f
C27 a_9600_2649# a_9470_2709# 0.42f
C28 a_6316_1670# a_6198_1286# 1.05575f
C29 a_5077_2694# a_4518_2178# 0.05591f
C30 a_7247_2694# a_5951_2129# 0
C31 a_9592_2447# a_9600_2649# 0.36682f
C32 a_7415_2118# a_5951_2129# 0.1312f
C33 a_6316_1670# a_7247_1286# 0.02095f
C34 a_6198_1286# a_4891_1225# 0.17522f
C35 a_7191_2118# a_6751_2178# 0.00541f
C36 a_5263_2694# a_7415_2118# 0.00146f
C37 a_5675_1286# a_5315_1802# 0.03043f
C38 a_6316_1670# a_7247_1802# 0
C39 AND$3_0/a_n349_404# a_7247_1286# 0
C40 a_6379_2178# a_6751_2178# 0.13688f
C41 a_5619_1226# a_5675_1802# 0.00287f
C42 a_7191_2118# a_5951_2129# 0
C43 a_9592_2447# a_9656_1272# 0
C44 a_6379_2178# a_5951_2129# 0.04447f
C45 a_6316_1670# a_5675_1802# 0.00477f
C46 a_6695_1226# a_7191_1226# 0.01125f
C47 a_5619_1226# a_4389_1285# 0
C48 a_5077_2694# a_5315_1802# 0.00383f
C49 a_4891_1225# a_5675_1802# 0.00165f
C50 a_6198_1286# a_5263_2178# 0.05172f
C51 a_5675_1286# a_5951_2129# 0.0012f
C52 a_6198_1286# a_4518_2178# 0.04955f
C53 a_6316_1670# a_4389_1285# 0.22897f
C54 a_7247_2694# a_7415_2118# 0.1879f
C55 a_7821_1286# a_7415_2118# 0.00324f
C56 a_4891_1225# a_4389_1285# 0.09961f
C57 a_9600_1212# a_7247_2694# 0.00368f
C58 a_6316_1670# a_4575_1802# 0.00764f
C59 a_7821_1286# a_9600_1212# 0.00149f
C60 a_9600_1212# a_7415_2118# 0.01539f
C61 a_9592_2447# a_9470_1272# 0.00247f
C62 a_5077_2694# a_4203_1285# 0.12876f
C63 a_4891_1225# a_4575_1802# 0.02018f
C64 AND$2_0/a_n719_n907# AND$3_0/a_n349_404# 0.00321f
C65 a_7191_2118# a_7247_2694# 0.01183f
C66 a_5077_2694# a_5951_2129# 0.90614f
C67 a_7191_2118# a_7415_2118# 0.05726f
C68 a_9600_1212# a_7191_2118# 0
C69 a_6316_1670# a_7191_1226# 0.00282f
C70 a_5077_2694# a_5263_2694# 0.02931f
C71 a_6379_2178# a_7247_2694# 0
C72 a_6379_2178# a_7415_2118# 0.16075f
C73 a_9600_2649# a_7247_2694# 0
C74 a_6316_1670# a_6695_1226# 0.04586f
C75 a_9600_2649# a_7415_2118# 0.00591f
C76 a_7821_1286# a_9600_2649# 0.01582f
C77 a_6198_1286# a_5315_1802# 0.1821f
C78 a_9600_2649# a_9600_1212# 0.18104f
C79 a_6379_2178# a_7191_2118# 0.01125f
C80 a_7821_1286# AND$3_0/a_n410_n189# 0.00196f
C81 AND$3_0/a_n410_n189# a_7415_2118# 0
C82 AND$3_0/a_n410_n189# a_9600_1212# 0.00439f
C83 a_6316_1670# a_5619_1226# 0.02588f
C84 a_9600_1212# a_9656_1272# 0.0903f
C85 a_6198_1286# a_6751_2178# 0
C86 a_6198_1286# a_4203_1285# 0.18344f
C87 a_5675_1802# a_5315_1802# 0.03019f
C88 a_4891_1225# a_5619_1226# 0.00288f
C89 a_6198_1286# a_5951_2129# 0.16478f
C90 a_5077_2694# a_7415_2118# 0.00975f
C91 a_7821_2278# a_9592_2447# -0.00388f
C92 a_6198_1286# a_5263_2694# 0.00457f
C93 a_6316_1670# a_4891_1225# 0.06835f
C94 AND$2_0/a_n719_n907# a_9656_2193# 0
C95 a_9600_2649# AND$3_0/a_n410_n189# 0.00915f
C96 a_4389_1285# a_5315_1802# 0.14441f
C97 a_9600_2649# a_9656_1272# 0.00155f
C98 AND$2_0/a_n719_n907# a_9470_2709# 0
C99 a_4575_1802# a_5315_1802# 0.00764f
C100 a_9600_1212# a_9470_1272# 0.42033f
C101 a_7821_2278# a_6751_2178# 0
C102 AND$2_0/a_n719_n907# a_9592_2447# 0.1269f
C103 a_5675_1802# a_5951_2129# 0.00268f
C104 a_4389_1285# a_4203_1285# 0.24044f
C105 a_6316_1670# a_5263_2178# 0.05231f
C106 a_4389_1285# a_5951_2129# 0.00118f
C107 a_4575_1802# a_4203_1285# 0.01387f
C108 a_6695_1226# a_5315_1802# 0
C109 a_4891_1225# a_5263_2178# 0.00166f
C110 a_6316_1670# a_4518_2178# 0.00376f
C111 a_9600_2649# a_9470_1272# 0.00177f
C112 a_6198_1286# a_7415_2118# 0.05735f
C113 a_7247_2694# a_7247_1286# 0.0035f
C114 a_7247_1286# a_7415_2118# 0.1572f
C115 a_7821_1286# a_7247_1286# 0.11667f
C116 a_4891_1225# a_4518_2178# 0.01022f
C117 a_9600_1212# a_7247_1286# 0
C118 a_7247_1802# a_7415_2118# 0.01888f
C119 a_6198_1286# a_7191_2118# 0
C120 a_5619_1226# a_5315_1802# 0.03131f
C121 a_9470_1272# a_9656_1272# 0.11912f
C122 a_6198_1286# a_6379_2178# 0.0027f
C123 a_5675_1802# a_7415_2118# 0
C124 a_9600_2649# a_7247_1286# 0.0052f
C125 a_6316_1670# a_5315_1802# 0.27862f
C126 a_7821_2278# a_7247_2694# 0.11661f
C127 a_7821_2278# a_7821_1286# 0.00921f
C128 a_7821_2278# a_7415_2118# 0.00342f
C129 AND$2_0/a_n780_n1500# a_7415_2118# 0
C130 a_7821_2278# a_9600_1212# 0.01644f
C131 AND$2_0/a_n780_n1500# a_9600_1212# 0.01061f
C132 a_4891_1225# a_5315_1802# 0.09977f
C133 a_9600_2649# a_7247_1802# 0.00149f
C134 a_6198_1286# a_5675_1286# 0.0085f
C135 AND$2_0/a_n719_n907# a_7247_2694# 0
C136 AND$2_0/a_n719_n907# a_7415_2118# 0
C137 a_5619_1226# a_5951_2129# 0.00212f
C138 AND$2_0/a_n719_n907# a_9600_1212# 0.0609f
C139 a_6316_1670# a_6751_2178# 0
C140 a_6316_1670# a_4203_1285# 0.31272f
C141 a_7821_2278# a_9600_2649# 0.00164f
C142 AND$2_0/a_n780_n1500# a_9600_2649# 0.00122f
C143 a_4891_1225# a_4203_1285# 0.10462f
C144 a_6198_1286# a_5077_2694# 0.26863f
C145 a_6316_1670# a_5951_2129# 0.21408f
C146 a_5675_1802# a_5675_1286# 0.02357f
C147 a_5263_2178# a_5315_1802# 0.00159f
C148 a_7191_1226# a_7415_2118# 0.05581f
C149 a_4891_1225# a_5951_2129# 0.0265f
C150 a_6316_1670# a_5263_2694# 0.06194f
C151 a_6695_1226# a_7415_2118# 0.00853f
C152 AND$2_0/a_n719_n907# a_9600_2649# 0.01728f
C153 a_7191_2118# a_7191_1226# 0.01351f
C154 a_6751_2178# a_7247_2178# 0.00205f
C155 a_9600_2649# a_7191_1226# 0
C156 a_6379_2178# a_6695_1226# 0.01351f
C157 a_9470_2709# a_9656_2193# 0.11912f
C158 a_5619_1226# a_7415_2118# 0
C159 a_4518_2178# a_4203_1285# 0
C160 a_5263_2178# a_5951_2129# 0.02034f
C161 a_9592_2447# a_9656_2193# 0.0865f
C162 a_5077_2694# a_4389_1285# 0
C163 a_5263_2694# a_5263_2178# 0.01052f
C164 a_4518_2178# a_5951_2129# 0.0298f
C165 a_6316_1670# a_7821_1286# 0
C166 a_6316_1670# a_7415_2118# 0.05562f
C167 a_6198_1286# a_7247_1286# 0
C168 a_9592_2447# a_9470_2709# 0.10949f
C169 a_5077_2694# a_4575_1802# 0
C170 a_4891_1225# a_7415_2118# 0
C171 AND$3_0/a_n349_404# a_7415_2118# 0
C172 a_7821_1286# AND$3_0/a_n349_404# 0.02184f
C173 AND$3_0/a_n349_404# a_9600_1212# 0.01806f
C174 a_7247_1802# a_7247_1286# 0.01036f
C175 a_4203_1285# a_5315_1802# 0.18927f
C176 a_6316_1670# a_6379_2178# 0.00255f
C177 a_6198_1286# a_5675_1802# 0.0541f
C178 a_7247_2694# a_7247_2178# 0.01036f
C179 a_5619_1226# a_5675_1286# 0.00288f
C180 a_7247_2178# a_7415_2118# 0.01831f
C181 a_5951_2129# a_5315_1802# 0.02544f
C182 a_9600_1212# a_7247_2178# 0.0014f
C183 a_9600_2649# AND$3_0/a_n349_404# 0.04335f
C184 a_5263_2178# a_7415_2118# 0.00134f
C185 a_5315_1802# GND 1.07404f
C186 a_4203_1285# GND 1.28474f
C187 a_5951_2129# GND 2.29646f
C188 a_7415_2118# GND 1.93757f
C189 a_5675_1286# GND 0.12437f
C190 a_9656_1272# GND 0.29539f
C191 a_9470_1272# GND 0.23209f
C192 a_7247_1286# GND 0.93514f
C193 a_7247_1802# GND 0.02029f
C194 a_5675_1802# GND 0.16295f
C195 a_4389_1285# GND 0.60196f
C196 a_4575_1802# GND 0.16587f
C197 a_7191_1226# GND 0.35875f
C198 a_6695_1226# GND 0.37838f
C199 a_5619_1226# GND 0.36639f
C200 a_7247_2178# GND 0.01967f
C201 a_5263_2178# GND 0.15853f
C202 a_4518_2178# GND 0.16355f
C203 a_9656_2193# GND 0.20897f
C204 a_9470_2709# GND 0.1246f
C205 a_6751_2178# GND 0.34219f
C206 a_5263_2694# GND 0.1244f
C207 a_7247_2694# GND 0.92654f
C208 a_7191_2118# GND 0.35604f
C209 a_6379_2178# GND 0.80184f
C210 a_5077_2694# GND 0.93629f
C211 a_9600_1212# GND 1.80486f
C212 AND$3_0/a_n410_n189# GND 0.01212f
C213 AND$3_0/a_n349_404# GND 1.06568f
C214 a_9600_2649# GND 1.43054f
C215 a_7821_1286# GND 0.80971f
C216 a_4891_1225# GND 1.07712f
C217 a_6198_1286# GND 1.82747f
C218 a_6316_1670# GND 3.71117f
C219 AND$2_0/a_n780_n1500# GND 0.01212f
C220 AND$2_0/a_n719_n907# GND 0.9387f
C221 a_7821_2278# GND 0.81235f
C222 a_9592_2447# GND 0.63067f
.ends

.subckt AND$3$7 w_46_265# w_n528_265# a_n742_327# w_n304_265# a_n542_231# a_n318_109#
+ a_n738_n189# a_164_n89# a_n592_n189# a_n349_404# a_11_n89# a_n410_n189#
X0 a_n738_n189# a_n349_404# a_11_n89# a_n738_n189# nfet_03v3 ad=0.315p pd=2.26u as=0.2425p ps=1.97u w=0.5u l=0.28u
X1 a_n410_n189# a_n542_231# a_n592_n189# a_n738_n189# nfet_03v3 ad=0.42p pd=1.84u as=0.63p ps=3.26u w=1u l=0.28u
X2 a_n349_404# a_n318_109# a_n410_n189# a_n738_n189# nfet_03v3 ad=0.65p pd=3.3u as=0.42p ps=1.84u w=1u l=0.28u
C0 a_n318_109# w_n528_265# 0.00418f
C1 a_n742_327# a_n349_404# 0.00206f
C2 w_n528_265# a_n542_231# 0.06384f
C3 a_n410_n189# a_n349_404# 0.01043f
C4 a_n592_n189# a_n318_109# 0.00216f
C5 a_n592_n189# a_n542_231# 0.01438f
C6 a_n410_n189# a_11_n89# 0.00123f
C7 a_n318_109# a_n349_404# 0.13145f
C8 a_n349_404# a_n542_231# 0.02475f
C9 a_n318_109# a_11_n89# 0.00215f
C10 a_n318_109# w_46_265# 0.00144f
C11 a_11_n89# a_n542_231# 0
C12 a_n318_109# w_n304_265# 0.04973f
C13 w_n528_265# a_n349_404# 0.00889f
C14 w_n304_265# a_n542_231# 0.00504f
C15 a_n592_n189# a_n349_404# 0.01277f
C16 a_n592_n189# a_11_n89# 0.0074f
C17 a_11_n89# a_n349_404# 0.12036f
C18 w_46_265# a_n349_404# 0.06116f
C19 w_n304_265# a_n349_404# 0.02349f
C20 a_n742_327# a_n542_231# 0
C21 a_n410_n189# a_n318_109# 0.0047f
C22 a_n318_109# a_n542_231# 0.03899f
C23 a_n592_n189# a_n410_n189# 0.00599f
C24 a_11_n89# a_n738_n189# 0.10054f
C25 a_n592_n189# a_n738_n189# 0.15217f
C26 a_n349_404# a_n738_n189# 0.73548f
C27 a_n318_109# a_n738_n189# 0.34773f
C28 a_n742_327# a_n738_n189# 0.26053f
C29 a_n542_231# a_n738_n189# 0.38694f
C30 w_46_265# a_n738_n189# 0.19084f
C31 w_n304_265# a_n738_n189# 0.1813f
C32 w_n528_265# a_n738_n189# 0.18473f
.ends

.subckt AND$2$7 a_n912_n1080# a_n1108_n1500# w_n898_n1046# a_n962_n1500# a_n206_n1400#
+ a_n966_n984# a_n359_n1400# a_n1112_n984# a_n719_n907# a_n780_n1500# w_n324_n1046#
+ w_n674_n1046# a_n688_n1202#
X0 a_n719_n907# a_n688_n1202# a_n780_n1500# a_n1108_n1500# nfet_03v3 ad=0.65p pd=3.3u as=0.42p ps=1.84u w=1u l=0.28u
X1 a_n780_n1500# a_n912_n1080# a_n962_n1500# a_n1108_n1500# nfet_03v3 ad=0.42p pd=1.84u as=0.63p ps=3.26u w=1u l=0.28u
X2 a_n1108_n1500# a_n719_n907# a_n359_n1400# a_n1108_n1500# nfet_03v3 ad=0.31p pd=2.24u as=0.2425p ps=1.97u w=0.5u l=0.28u
C0 a_n912_n1080# w_n898_n1046# 0.06384f
C1 w_n674_n1046# a_n912_n1080# 0.00504f
C2 a_n688_n1202# a_n912_n1080# 0.03899f
C3 a_n962_n1500# a_n359_n1400# 0.0074f
C4 a_n359_n1400# a_n780_n1500# 0.00123f
C5 a_n688_n1202# a_n359_n1400# 0.00215f
C6 a_n719_n907# a_n1112_n984# 0.00206f
C7 w_n324_n1046# a_n719_n907# 0.06116f
C8 a_n962_n1500# a_n719_n907# 0.01277f
C9 a_n719_n907# a_n780_n1500# 0.01043f
C10 a_n359_n1400# a_n912_n1080# 0
C11 a_n719_n907# w_n898_n1046# 0.00889f
C12 w_n674_n1046# a_n719_n907# 0.02349f
C13 a_n688_n1202# a_n719_n907# 0.13145f
C14 a_n688_n1202# w_n324_n1046# 0.00144f
C15 a_n962_n1500# a_n780_n1500# 0.00599f
C16 a_n688_n1202# a_n962_n1500# 0.00216f
C17 a_n688_n1202# a_n780_n1500# 0.0047f
C18 a_n912_n1080# a_n1112_n984# 0
C19 a_n688_n1202# w_n898_n1046# 0.00418f
C20 a_n688_n1202# w_n674_n1046# 0.04973f
C21 a_n912_n1080# a_n719_n907# 0.02475f
C22 a_n359_n1400# a_n719_n907# 0.12036f
C23 a_n962_n1500# a_n912_n1080# 0.01438f
C24 a_n359_n1400# a_n1108_n1500# 0.10054f
C25 a_n962_n1500# a_n1108_n1500# 0.15217f
C26 a_n719_n907# a_n1108_n1500# 0.73548f
C27 a_n688_n1202# a_n1108_n1500# 0.34773f
C28 a_n1112_n984# a_n1108_n1500# 0.26053f
C29 a_n912_n1080# a_n1108_n1500# 0.38694f
C30 w_n324_n1046# a_n1108_n1500# 0.19084f
C31 w_n674_n1046# a_n1108_n1500# 0.1813f
C32 w_n898_n1046# a_n1108_n1500# 0.18473f
.ends

.subckt ROW$7 a_5675_1286# a_5951_2129# a_7247_1286# AND$3$7_0/a_164_n89# a_5263_2178#
+ AND$2$7_0/a_n780_n1500# a_7247_2178# a_4891_1225# GND a_5675_1802#
+ AND$3$7_0/a_n410_n189# a_5263_2694# a_7191_1226# a_6316_1670# a_9600_1212# a_7247_2694#
+ a_7247_1802# a_6695_1226# a_7821_2278# AND$3$7_0/a_n349_404# a_9656_2193# a_7191_2118#
+ a_4518_2178# a_6198_1286# a_5315_1802# a_4203_1285# a_9470_2709# a_9600_2649# a_6379_2178#
+ a_5077_2694# a_9470_1272# a_7821_1286# a_4389_1285# AND$2$7_0/a_n719_n907# a_7415_2118#
+ a_9656_1272# a_6751_2178# a_4575_1802# a_5619_1226# a_9592_2447#
XAND$3$7_0 GND GND GND GND
+ a_7821_1286# a_9600_2649# GND AND$3$7_0/a_164_n89# GND
+ AND$3$7_0/a_n349_404# GND AND$3$7_0/a_n410_n189# AND$3$7
XAND$2$7_0 a_7821_2278# GND GND GND a_9592_2447#
+ GND GND GND AND$2$7_0/a_n719_n907#
+ AND$2$7_0/a_n780_n1500# GND GND a_9600_1212# AND$2$7
X0 a_7821_1286# a_7247_1286# GND GND nfet_03v3 ad=0.3125p pd=2.25u as=0.2425p ps=1.97u w=0.5u l=0.28u
X1 GND a_7415_2118# a_7247_1286# GND pfet_03v3 ad=0.735p pd=2.47u as=0.42p ps=1.84u w=1u l=0.28u
X2 a_9600_1212# GND GND GND pfet_03v3 ad=0.65p pd=3.3u as=0.55p ps=3.1u w=1u l=0.28u
X3 a_7415_2118# a_5951_2129# GND GND nfet_03v3 ad=0.61p pd=3.22u as=0.61p ps=3.22u w=1u l=0.28u
X4 a_9656_1272# GND a_9470_1272# GND nfet_03v3 ad=0.63p pd=3.26u as=0.63p ps=3.26u w=1u l=0.28u
X5 a_7247_2694# a_7191_2118# GND GND pfet_03v3 ad=0.42p pd=1.84u as=0.65p ps=3.3u w=1u l=0.28u
X6 a_4389_1285# a_4891_1225# a_4575_1802# GND nfet_03v3 ad=0.61p pd=3.22u as=0.61p ps=3.22u w=1u l=0.28u
X7 a_9600_1212# GND GND GND nfet_03v3 ad=0.315p pd=2.26u as=0.2825p ps=2.13u w=0.5u l=0.28u
X8 a_5077_2694# a_6316_1670# a_4203_1285# GND pfet_03v3 ad=0.65p pd=3.3u as=0.65p ps=3.3u w=1u l=0.28u
X9 a_5263_2694# a_5951_2129# a_5077_2694# GND pfet_03v3 ad=0.65p pd=3.3u as=0.65p ps=3.3u w=1u l=0.28u
X10 a_7247_1286# a_7415_2118# a_7247_1802# GND nfet_03v3 ad=0.65p pd=3.3u as=0.42p ps=1.84u w=1u l=0.28u
X11 GND a_6695_1226# a_6316_1670# GND pfet_03v3 ad=0.65p pd=3.3u as=0.65p ps=3.3u w=1u l=0.28u
X12 a_7247_2694# a_7415_2118# a_7247_2178# GND nfet_03v3 ad=0.65p pd=3.3u as=0.42p ps=1.84u w=1u l=0.28u
X13 a_4575_1802# a_4203_1285# GND GND nfet_03v3 ad=0.61p pd=3.22u as=0.61p ps=3.22u w=1u l=0.28u
X14 a_4203_1285# a_5315_1802# GND GND pfet_03v3 ad=0.65p pd=3.3u as=0.76p ps=3.52u w=1u l=0.28u
X15 a_6379_2178# a_5951_2129# GND GND pfet_03v3 ad=0.65p pd=3.3u as=0.65p ps=3.3u w=1u l=0.28u
X16 GND a_6316_1670# a_6198_1286# GND pfet_03v3 ad=0.64p pd=3.28u as=0.63p ps=3.26u w=1u l=0.28u
X17 a_5315_1802# a_6316_1670# a_4389_1285# GND pfet_03v3 ad=0.59p pd=3.18u as=0.65p ps=3.3u w=1u l=0.28u
X18 a_7247_1286# a_7191_1226# GND GND pfet_03v3 ad=0.42p pd=1.84u as=0.65p ps=3.3u w=1u l=0.28u
X19 GND a_6316_1670# a_5675_1802# GND nfet_03v3 ad=0.575p pd=3.15u as=0.61p ps=3.22u w=1u l=0.28u
X20 GND a_6198_1286# a_5675_1286# GND pfet_03v3 ad=0.54p pd=3.08u as=0.63p ps=3.26u w=1u l=0.28u
X21 GND a_6695_1226# a_6316_1670# GND nfet_03v3 ad=0.67p pd=3.34u as=0.63p ps=3.26u w=1u l=0.28u
X22 a_5951_2129# a_5077_2694# GND GND pfet_03v3 ad=0.65p pd=3.3u as=0.65p ps=3.3u w=1u l=0.28u
X23 a_6751_2178# a_6379_2178# GND GND nfet_03v3 ad=0.61p pd=3.22u as=0.61p ps=3.22u w=1u l=0.28u
X24 a_7821_2278# a_7247_2694# GND GND pfet_03v3 ad=0.63p pd=3.26u as=0.735p ps=2.47u w=1u l=0.28u
X25 GND a_6316_1670# a_6198_1286# GND nfet_03v3 ad=0.61p pd=3.22u as=0.61p ps=3.22u w=1u l=0.28u
X26 a_7415_2118# a_5951_2129# GND GND pfet_03v3 ad=0.65p pd=3.3u as=0.65p ps=3.3u w=1u l=0.28u
X27 a_5077_2694# a_6198_1286# a_4203_1285# GND nfet_03v3 ad=0.61p pd=3.22u as=0.715p ps=3.43u w=1u l=0.28u
X28 a_7247_2178# a_7191_2118# GND GND nfet_03v3 ad=0.42p pd=1.84u as=0.63p ps=3.26u w=1u l=0.28u
X29 a_7247_1802# a_7191_1226# GND GND nfet_03v3 ad=0.42p pd=1.84u as=0.63p ps=3.26u w=1u l=0.28u
X30 a_4389_1285# a_4891_1225# GND GND pfet_03v3 ad=0.65p pd=3.3u as=0.65p ps=3.3u w=1u l=0.28u
X31 a_5951_2129# a_4891_1225# GND GND pfet_03v3 ad=0.65p pd=3.3u as=0.65p ps=3.3u w=1u l=0.28u
X32 a_9600_2649# GND GND GND nfet_03v3 ad=0.315p pd=2.26u as=0.285p ps=2.14u w=0.5u l=0.28u
X33 a_5263_2178# a_5951_2129# a_5077_2694# GND nfet_03v3 ad=0.61p pd=3.22u as=0.61p ps=3.22u w=1u l=0.28u
X34 a_5315_1802# a_6198_1286# a_4389_1285# GND nfet_03v3 ad=0.61p pd=3.22u as=0.61p ps=3.22u w=1u l=0.28u
X35 GND a_4203_1285# a_4389_1285# GND pfet_03v3 ad=0.65p pd=3.3u as=0.65p ps=3.3u w=1u l=0.28u
X36 a_5675_1286# a_5619_1226# a_5315_1802# GND pfet_03v3 ad=0.605p pd=3.21u as=0.63p ps=3.26u w=1u l=0.28u
X37 a_7821_2278# a_7247_2694# GND GND nfet_03v3 ad=0.31p pd=2.24u as=0.2425p ps=1.97u w=0.5u l=0.28u
X38 GND a_7415_2118# a_7247_2694# GND pfet_03v3 ad=0.735p pd=2.47u as=0.42p ps=1.84u w=1u l=0.28u
X39 a_4518_2178# a_4891_1225# GND GND nfet_03v3 ad=0.61p pd=3.22u as=0.61p ps=3.22u w=1u l=0.28u
X40 a_6379_2178# a_5951_2129# GND GND nfet_03v3 ad=0.61p pd=3.22u as=0.61p ps=3.22u w=1u l=0.28u
X41 a_7821_1286# a_7247_1286# GND GND pfet_03v3 ad=0.64p pd=3.28u as=0.735p ps=2.47u w=1u l=0.28u
X42 a_9656_2193# a_9600_2649# a_9470_2709# GND pfet_03v3 ad=0.65p pd=3.3u as=0.65p ps=3.3u w=1u l=0.28u
X43 a_4203_1285# a_5315_1802# GND GND nfet_03v3 ad=0.61p pd=3.22u as=0.76p ps=3.52u w=1u l=0.28u
X44 a_9656_2193# a_9592_2447# a_9470_2709# GND nfet_03v3 ad=0.63p pd=3.26u as=0.63p ps=3.26u w=1u l=0.28u
X45 GND a_6198_1286# a_5263_2694# GND pfet_03v3 ad=0.65p pd=3.3u as=0.65p ps=3.3u w=1u l=0.28u
X46 a_9656_1272# a_9600_1212# a_9470_1272# GND pfet_03v3 ad=0.65p pd=3.3u as=0.65p ps=3.3u w=1u l=0.28u
X47 a_5675_1802# a_5619_1226# a_5315_1802# GND nfet_03v3 ad=0.61p pd=3.22u as=0.61p ps=3.22u w=1u l=0.28u
X48 a_5951_2129# a_5077_2694# a_4518_2178# GND nfet_03v3 ad=0.61p pd=3.22u as=0.61p ps=3.22u w=1u l=0.28u
X49 GND a_6316_1670# a_5263_2178# GND nfet_03v3 ad=0.61p pd=3.22u as=0.61p ps=3.22u w=1u l=0.28u
X50 a_6751_2178# a_6379_2178# GND GND pfet_03v3 ad=0.65p pd=3.3u as=0.65p ps=3.3u w=1u l=0.28u
X51 a_9600_2649# GND GND GND pfet_03v3 ad=0.65p pd=3.3u as=0.56p ps=3.12u w=1u l=0.28u
C0 a_6751_2178# a_7415_2118# 0.06468f
C1 a_7821_2278# a_6751_2178# 0
C2 a_6316_1670# a_5263_2694# 0.06194f
C3 a_6695_1226# a_7247_1286# 0.00106f
C4 a_7415_2118# a_5315_1802# 0
C5 a_9600_2649# AND$2$7_0/a_n719_n907# 0.01728f
C6 a_9600_1212# a_9592_2447# 0.07747f
C7 a_6316_1670# a_5077_2694# 0.30745f
C8 a_6198_1286# a_5675_1286# 0.0085f
C9 a_9600_2649# a_7821_1286# 0.01582f
C10 a_4891_1225# a_5619_1226# 0.00288f
C11 a_9600_1212# a_9656_1272# 0.0903f
C12 AND$3$7_0/a_n349_404# AND$3$7_0/a_n410_n189# -0
C13 a_4575_1802# a_4389_1285# 0.06846f
C14 a_5077_2694# a_5315_1802# 0.00383f
C15 AND$3$7_0/a_n349_404# a_7415_2118# 0
C16 a_9600_1212# a_7191_2118# 0
C17 a_7191_2118# a_6198_1286# 0
C18 a_7247_2178# a_6751_2178# 0.00205f
C19 a_6316_1670# a_5675_1286# 0.04809f
C20 AND$2$7_0/a_n780_n1500# AND$2$7_0/a_n719_n907# -0
C21 a_7415_2118# a_5951_2129# 0.1312f
C22 a_9600_2649# a_9600_1212# 0.18104f
C23 a_6379_2178# a_7415_2118# 0.16075f
C24 a_5077_2694# a_4518_2178# 0.05591f
C25 a_5263_2694# a_5951_2129# 0.01967f
C26 a_5077_2694# a_4203_1285# 0.12876f
C27 a_7247_2694# a_7415_2118# 0.1879f
C28 a_7821_2278# a_7247_2694# 0.11661f
C29 a_5675_1286# a_5315_1802# 0.03043f
C30 a_9600_1212# a_9470_1272# 0.42033f
C31 a_5619_1226# a_5675_1802# 0.00287f
C32 a_5077_2694# a_5951_2129# 0.90614f
C33 a_7191_2118# a_6751_2178# 0.00541f
C34 a_7821_1286# a_7247_1286# 0.11667f
C35 a_9600_1212# AND$2$7_0/a_n780_n1500# 0.01061f
C36 a_6695_1226# a_7191_1226# 0.01125f
C37 a_5619_1226# a_4389_1285# 0
C38 a_4891_1225# a_6198_1286# 0.17522f
C39 a_7247_2178# a_7247_2694# 0.01036f
C40 a_5675_1286# a_5951_2129# 0.0012f
C41 a_9600_1212# a_7247_1286# 0
C42 AND$3$7_0/a_n410_n189# a_7415_2118# 0
C43 a_6198_1286# a_7247_1286# 0
C44 a_9592_2447# a_7247_2694# -0.00321f
C45 a_4891_1225# a_5263_2178# 0.00166f
C46 a_7821_2278# a_7415_2118# 0.00342f
C47 AND$3$7_0/a_n349_404# a_9600_2649# 0.04335f
C48 a_5263_2694# a_7415_2118# 0.00146f
C49 a_7191_2118# a_5951_2129# 0
C50 a_7191_2118# a_6379_2178# 0.01125f
C51 a_4891_1225# a_6316_1670# 0.06835f
C52 a_9470_2709# AND$2$7_0/a_n719_n907# 0
C53 a_7191_2118# a_7247_2694# 0.01183f
C54 a_5077_2694# a_7415_2118# 0.00975f
C55 a_5263_2694# a_5077_2694# 0.02931f
C56 a_4891_1225# a_5315_1802# 0.09977f
C57 a_6316_1670# a_7247_1286# 0.02095f
C58 a_6198_1286# a_5675_1802# 0.0541f
C59 a_9600_2649# a_7247_2694# 0
C60 a_7247_2178# a_7415_2118# 0.01831f